version 2
run DMAT-0-20171029-14:52:41-16064
attr configname DMAT
attr datetime 20171029-14:52:41
attr experiment DMAT
attr hops 1
attr inifile omnetpp.ini
attr iterationvars "$logVehPeriod=15, $hops=1"
attr iterationvars2 "$logVehPeriod=15, $hops=1, $repetition=0"
attr logVehPeriod 15
attr measurement "$logVehPeriod=15, $hops=1"
attr network com.liborio.cooppos.LocScenario
attr processid 16064
attr repetition 0
attr replication #0
attr resultdir results
attr runnumber 0
attr seedset 0
param **.coreDebug false
param **.debug false
param *.annotations.draw false
param *.connectionManager.drawMaxIntfDist false
param *.connectionManager.maxInterfDist 600m
param *.connectionManager.sendDirect true
param *.manager.autoShutdown true
param *.manager.host "\"localhost\""
param *.manager.launchConfig "xmldoc(\"dmat-\"+string(${logVehPeriod = 15, 10, 5, 3, 1})+\".launchd.xml\")"
param *.manager.port 9999
param *.manager.updateInterval 0.1s
param *.node[*].appl.beaconInterval 0.1s
param *.node[*].appl.dataOnSch false
param *.node[*].appl.headerLength "80 bit"
param *.node[*].appl.hops "${hops = 1, 2, 3, 4, 5}"
param *.node[*].appl.logVehPeriod ${logVehPeriod}
param *.node[*].appl.seedPar ${repetition}
param *.node[*].appl.sendBeacons true
param *.node[*].applType "\"Communication\""
param *.node[*].nic.mac1609_4.bitrate 6Mbps
param *.node[*].nic.mac1609_4.txPower 20mW
param *.node[*].nic.mac1609_4.useServiceChannel false
param *.node[*].nic.phy80211p.analogueModels "xmldoc(\"config.xml\")"
param *.node[*].nic.phy80211p.antenna "xmldoc(\"antenna.xml\", \"/root/Antenna[@id='monopole']\")"
param *.node[*].nic.phy80211p.decider "xmldoc(\"config.xml\")"
param *.node[*].nic.phy80211p.sensitivity -84.39dBm
param *.node[*].nic.phy80211p.thermalNoise -110dBm
param *.node[*].nic.phy80211p.usePropagationDelay true
param *.node[*].nic.phy80211p.useThermalNoise true
param *.node[*].veinsmobility.x 0
param *.node[*].veinsmobility.y 0
param *.node[*].veinsmobility.z 1.895
param *.node[*].veinsmobilityType.debug true
param *.outagesServer.appl.beaconInterval 0.1s
param *.outagesServer.appl.beaconPriority 3
param *.outagesServer.appl.dataOnSch false
param *.outagesServer.appl.dataPriority 2
param *.outagesServer.appl.headerLength "80 bit"
param *.outagesServer.appl.sendBeacons false
param *.outagesServer.applType "\"Outages\""
param *.outagesServer.mobility.x 5000.0
param *.outagesServer.mobility.y 5000.0
param *.outagesServer.mobility.z 3
param *.outagesServer.nic.mac1609_4.bitrate 6Mbps
param *.outagesServer.nic.mac1609_4.txPower 20mW
param *.outagesServer.nic.mac1609_4.useServiceChannel false
param *.outagesServer.nic.phy80211p.analogueModels "xmldoc(\"config.xml\")"
param *.outagesServer.nic.phy80211p.antenna "xmldoc(\"antenna.xml\", \"/root/Antenna[@id='monopole']\")"
param *.outagesServer.nic.phy80211p.decider "xmldoc(\"config.xml\")"
param *.outagesServer.nic.phy80211p.sensitivity -84.39dBm
param *.outagesServer.nic.phy80211p.thermalNoise -110dBm
param *.outagesServer.nic.phy80211p.usePropagationDelay true
param *.outagesServer.nic.phy80211p.useThermalNoise true
param *.playgroundSizeX 20000m
param *.playgroundSizeY 20000m
param *.playgroundSizeZ 50m

scalar . 	hops 	1
scalar . 	logVehPeriod 	15
scalar LocScenario.node[1].appl 	generatedWSMs 	0
scalar LocScenario.node[1].appl 	receivedWSMs 	0
scalar LocScenario.node[1].appl 	generatedBSMs 	2040
scalar LocScenario.node[1].appl 	receivedBSMs 	4818
scalar LocScenario.node[1].appl 	generatedWSAs 	0
scalar LocScenario.node[1].appl 	receivedWSAs 	0
scalar LocScenario.node[1].appl 	rmseSUMGPS 	574042.5793411
scalar LocScenario.node[1].appl 	rmseSUMCP 	521079.74079945
scalar LocScenario.node[1].appl 	delaySum 	0.54002357276099
scalar LocScenario.node[1].nic.phy80211p 	busyTime 	0.0024562352941175
scalar LocScenario.node[1].nic.mac1609_4 	ReceivedUnicastPackets 	0
scalar LocScenario.node[1].nic.mac1609_4 	ReceivedBroadcasts 	4818
scalar LocScenario.node[1].nic.mac1609_4 	SentPackets 	2040
scalar LocScenario.node[1].nic.mac1609_4 	SNIRLostPackets 	0
scalar LocScenario.node[1].nic.mac1609_4 	RXTXLostPackets 	0
scalar LocScenario.node[1].nic.mac1609_4 	TotalLostPackets 	0
scalar LocScenario.node[1].nic.mac1609_4 	DroppedPacketsInMac 	0
scalar LocScenario.node[1].nic.mac1609_4 	TooLittleTime 	0
scalar LocScenario.node[1].nic.mac1609_4 	TimesIntoBackoff 	2040
scalar LocScenario.node[1].nic.mac1609_4 	SlotsBackoff 	3169
scalar LocScenario.node[1].nic.mac1609_4 	NumInternalContention 	0
scalar LocScenario.node[1].nic.mac1609_4 	totalBusyTime 	0.715272
scalar LocScenario.node[1].veinsmobility 	startTime 	0.1
scalar LocScenario.node[1].veinsmobility 	totalTime 	203.9
scalar LocScenario.node[1].veinsmobility 	stopTime 	204.1
scalar LocScenario.node[1].veinsmobility 	minSpeed 	10.450001799117
scalar LocScenario.node[1].veinsmobility 	maxSpeed 	10.49996719819
scalar LocScenario.node[1].veinsmobility 	totalDistance 	2138.7876705868
scalar LocScenario.node[1].veinsmobility 	totalCO2Emission 	352.46001656528
scalar LocScenario.node[3].appl 	generatedWSMs 	0
scalar LocScenario.node[3].appl 	receivedWSMs 	0
scalar LocScenario.node[3].appl 	generatedBSMs 	2040
scalar LocScenario.node[3].appl 	receivedBSMs 	6929
scalar LocScenario.node[3].appl 	generatedWSAs 	0
scalar LocScenario.node[3].appl 	receivedWSAs 	0
scalar LocScenario.node[3].appl 	rmseSUMGPS 	990135.273604
scalar LocScenario.node[3].appl 	rmseSUMCP 	1448139.6099859
scalar LocScenario.node[3].appl 	delaySum 	0.77525339394403
scalar LocScenario.node[3].nic.phy80211p 	busyTime 	0.0035324313725488
scalar LocScenario.node[3].nic.mac1609_4 	ReceivedUnicastPackets 	0
scalar LocScenario.node[3].nic.mac1609_4 	ReceivedBroadcasts 	6929
scalar LocScenario.node[3].nic.mac1609_4 	SentPackets 	2040
scalar LocScenario.node[3].nic.mac1609_4 	SNIRLostPackets 	0
scalar LocScenario.node[3].nic.mac1609_4 	RXTXLostPackets 	0
scalar LocScenario.node[3].nic.mac1609_4 	TotalLostPackets 	0
scalar LocScenario.node[3].nic.mac1609_4 	DroppedPacketsInMac 	0
scalar LocScenario.node[3].nic.mac1609_4 	TooLittleTime 	0
scalar LocScenario.node[3].nic.mac1609_4 	TimesIntoBackoff 	2040
scalar LocScenario.node[3].nic.mac1609_4 	SlotsBackoff 	3044
scalar LocScenario.node[3].nic.mac1609_4 	NumInternalContention 	0
scalar LocScenario.node[3].nic.mac1609_4 	totalBusyTime 	0.934816
scalar LocScenario.node[3].veinsmobility 	startTime 	15.1
scalar LocScenario.node[3].veinsmobility 	totalTime 	203.9
scalar LocScenario.node[3].veinsmobility 	stopTime 	219.1
scalar LocScenario.node[3].veinsmobility 	minSpeed 	10.450014580821
scalar LocScenario.node[3].veinsmobility 	maxSpeed 	10.499957453134
scalar LocScenario.node[3].veinsmobility 	totalDistance 	2133.8318876219
scalar LocScenario.node[3].veinsmobility 	totalCO2Emission 	352.01787502415
scalar LocScenario.node[0].appl 	generatedWSMs 	0
scalar LocScenario.node[0].appl 	receivedWSMs 	0
scalar LocScenario.node[0].appl 	generatedBSMs 	2281
scalar LocScenario.node[0].appl 	receivedBSMs 	5199
scalar LocScenario.node[0].appl 	generatedWSAs 	0
scalar LocScenario.node[0].appl 	receivedWSAs 	0
scalar LocScenario.node[0].appl 	rmseSUMGPS 	755545.54300471
scalar LocScenario.node[0].appl 	rmseSUMCP 	482204.91002424
scalar LocScenario.node[0].appl 	delaySum 	0.58184753116525
scalar LocScenario.node[0].nic.phy80211p 	busyTime 	0.0023704340201665
scalar LocScenario.node[0].nic.mac1609_4 	ReceivedUnicastPackets 	0
scalar LocScenario.node[0].nic.mac1609_4 	ReceivedBroadcasts 	5199
scalar LocScenario.node[0].nic.mac1609_4 	SentPackets 	2281
scalar LocScenario.node[0].nic.mac1609_4 	SNIRLostPackets 	0
scalar LocScenario.node[0].nic.mac1609_4 	RXTXLostPackets 	0
scalar LocScenario.node[0].nic.mac1609_4 	TotalLostPackets 	0
scalar LocScenario.node[0].nic.mac1609_4 	DroppedPacketsInMac 	0
scalar LocScenario.node[0].nic.mac1609_4 	TooLittleTime 	0
scalar LocScenario.node[0].nic.mac1609_4 	TimesIntoBackoff 	2281
scalar LocScenario.node[0].nic.mac1609_4 	SlotsBackoff 	3326
scalar LocScenario.node[0].nic.mac1609_4 	NumInternalContention 	0
scalar LocScenario.node[0].nic.mac1609_4 	totalBusyTime 	0.780201
scalar LocScenario.node[0].veinsmobility 	startTime 	0.1
scalar LocScenario.node[0].veinsmobility 	totalTime 	228
scalar LocScenario.node[0].veinsmobility 	stopTime 	228.2
scalar LocScenario.node[0].veinsmobility 	minSpeed 	10.450036100612
scalar LocScenario.node[0].veinsmobility 	maxSpeed 	10.499997232482
scalar LocScenario.node[0].veinsmobility 	totalDistance 	2388.775122402
scalar LocScenario.node[0].veinsmobility 	totalCO2Emission 	393.41122053237
scalar LocScenario.node[5].appl 	generatedWSMs 	0
scalar LocScenario.node[5].appl 	receivedWSMs 	0
scalar LocScenario.node[5].appl 	generatedBSMs 	2040
scalar LocScenario.node[5].appl 	receivedBSMs 	7151
scalar LocScenario.node[5].appl 	generatedWSAs 	0
scalar LocScenario.node[5].appl 	receivedWSAs 	0
scalar LocScenario.node[5].appl 	rmseSUMGPS 	1026693.7865596
scalar LocScenario.node[5].appl 	rmseSUMCP 	409840.51712093
scalar LocScenario.node[5].appl 	delaySum 	0.80099001192917
scalar LocScenario.node[5].nic.phy80211p 	busyTime 	0.0036456078431371
scalar LocScenario.node[5].nic.mac1609_4 	ReceivedUnicastPackets 	0
scalar LocScenario.node[5].nic.mac1609_4 	ReceivedBroadcasts 	7151
scalar LocScenario.node[5].nic.mac1609_4 	SentPackets 	2040
scalar LocScenario.node[5].nic.mac1609_4 	SNIRLostPackets 	0
scalar LocScenario.node[5].nic.mac1609_4 	RXTXLostPackets 	0
scalar LocScenario.node[5].nic.mac1609_4 	TotalLostPackets 	0
scalar LocScenario.node[5].nic.mac1609_4 	DroppedPacketsInMac 	0
scalar LocScenario.node[5].nic.mac1609_4 	TooLittleTime 	0
scalar LocScenario.node[5].nic.mac1609_4 	TimesIntoBackoff 	2040
scalar LocScenario.node[5].nic.mac1609_4 	SlotsBackoff 	3014
scalar LocScenario.node[5].nic.mac1609_4 	NumInternalContention 	0
scalar LocScenario.node[5].nic.mac1609_4 	totalBusyTime 	0.957904
scalar LocScenario.node[5].veinsmobility 	startTime 	30.1
scalar LocScenario.node[5].veinsmobility 	totalTime 	203.9
scalar LocScenario.node[5].veinsmobility 	stopTime 	234.1
scalar LocScenario.node[5].veinsmobility 	minSpeed 	10.450008076162
scalar LocScenario.node[5].veinsmobility 	maxSpeed 	10.4999758041
scalar LocScenario.node[5].veinsmobility 	totalDistance 	2138.7666695765
scalar LocScenario.node[5].veinsmobility 	totalCO2Emission 	352.17241253218
scalar LocScenario.node[2].appl 	generatedWSMs 	0
scalar LocScenario.node[2].appl 	receivedWSMs 	0
scalar LocScenario.node[2].appl 	generatedBSMs 	2281
scalar LocScenario.node[2].appl 	receivedBSMs 	7553
scalar LocScenario.node[2].appl 	generatedWSAs 	0
scalar LocScenario.node[2].appl 	receivedWSAs 	0
scalar LocScenario.node[2].appl 	rmseSUMGPS 	787732.4142741
scalar LocScenario.node[2].appl 	rmseSUMCP 	216361.1595092
scalar LocScenario.node[2].appl 	delaySum 	0.84578247628182
scalar LocScenario.node[2].nic.phy80211p 	busyTime 	0.0034437176676894
scalar LocScenario.node[2].nic.mac1609_4 	ReceivedUnicastPackets 	0
scalar LocScenario.node[2].nic.mac1609_4 	ReceivedBroadcasts 	7553
scalar LocScenario.node[2].nic.mac1609_4 	SentPackets 	2281
scalar LocScenario.node[2].nic.mac1609_4 	SNIRLostPackets 	0
scalar LocScenario.node[2].nic.mac1609_4 	RXTXLostPackets 	0
scalar LocScenario.node[2].nic.mac1609_4 	TotalLostPackets 	0
scalar LocScenario.node[2].nic.mac1609_4 	DroppedPacketsInMac 	0
scalar LocScenario.node[2].nic.mac1609_4 	TooLittleTime 	0
scalar LocScenario.node[2].nic.mac1609_4 	TimesIntoBackoff 	2281
scalar LocScenario.node[2].nic.mac1609_4 	SlotsBackoff 	3432
scalar LocScenario.node[2].nic.mac1609_4 	NumInternalContention 	0
scalar LocScenario.node[2].nic.mac1609_4 	totalBusyTime 	1.025017
scalar LocScenario.node[2].veinsmobility 	startTime 	15.1
scalar LocScenario.node[2].veinsmobility 	totalTime 	228
scalar LocScenario.node[2].veinsmobility 	stopTime 	243.2
scalar LocScenario.node[2].veinsmobility 	minSpeed 	10.450001452526
scalar LocScenario.node[2].veinsmobility 	maxSpeed 	10.499990664306
scalar LocScenario.node[2].veinsmobility 	totalDistance 	2388.8101198593
scalar LocScenario.node[2].veinsmobility 	totalCO2Emission 	393.17507987161
scalar LocScenario.node[7].appl 	generatedWSMs 	0
scalar LocScenario.node[7].appl 	receivedWSMs 	0
scalar LocScenario.node[7].appl 	generatedBSMs 	2040
scalar LocScenario.node[7].appl 	receivedBSMs 	7372
scalar LocScenario.node[7].appl 	generatedWSAs 	0
scalar LocScenario.node[7].appl 	receivedWSAs 	0
scalar LocScenario.node[7].appl 	rmseSUMGPS 	846847.32314813
scalar LocScenario.node[7].appl 	rmseSUMCP 	1463274.4833861
scalar LocScenario.node[7].appl 	delaySum 	0.82467385520585
scalar LocScenario.node[7].nic.phy80211p 	busyTime 	0.0037582745098037
scalar LocScenario.node[7].nic.mac1609_4 	ReceivedUnicastPackets 	0
scalar LocScenario.node[7].nic.mac1609_4 	ReceivedBroadcasts 	7372
scalar LocScenario.node[7].nic.mac1609_4 	SentPackets 	2040
scalar LocScenario.node[7].nic.mac1609_4 	SNIRLostPackets 	0
scalar LocScenario.node[7].nic.mac1609_4 	RXTXLostPackets 	0
scalar LocScenario.node[7].nic.mac1609_4 	TotalLostPackets 	0
scalar LocScenario.node[7].nic.mac1609_4 	DroppedPacketsInMac 	0
scalar LocScenario.node[7].nic.mac1609_4 	TooLittleTime 	0
scalar LocScenario.node[7].nic.mac1609_4 	TimesIntoBackoff 	2040
scalar LocScenario.node[7].nic.mac1609_4 	SlotsBackoff 	3000
scalar LocScenario.node[7].nic.mac1609_4 	NumInternalContention 	0
scalar LocScenario.node[7].nic.mac1609_4 	totalBusyTime 	0.980888
scalar LocScenario.node[7].veinsmobility 	startTime 	45.1
scalar LocScenario.node[7].veinsmobility 	totalTime 	203.9
scalar LocScenario.node[7].veinsmobility 	stopTime 	249.1
scalar LocScenario.node[7].veinsmobility 	minSpeed 	10.45003960008
scalar LocScenario.node[7].veinsmobility 	maxSpeed 	10.499946114188
scalar LocScenario.node[7].veinsmobility 	totalDistance 	2133.8431022411
scalar LocScenario.node[7].veinsmobility 	totalCO2Emission 	351.89760513538
scalar LocScenario.node[4].appl 	generatedWSMs 	0
scalar LocScenario.node[4].appl 	receivedWSMs 	0
scalar LocScenario.node[4].appl 	generatedBSMs 	2281
scalar LocScenario.node[4].appl 	receivedBSMs 	7776
scalar LocScenario.node[4].appl 	generatedWSAs 	0
scalar LocScenario.node[4].appl 	receivedWSAs 	0
scalar LocScenario.node[4].appl 	rmseSUMGPS 	1016705.625407
scalar LocScenario.node[4].appl 	rmseSUMCP 	234980.39121724
scalar LocScenario.node[4].appl 	delaySum 	0.87087356193053
scalar LocScenario.node[4].nic.phy80211p 	busyTime 	0.0035453923717666
scalar LocScenario.node[4].nic.mac1609_4 	ReceivedUnicastPackets 	0
scalar LocScenario.node[4].nic.mac1609_4 	ReceivedBroadcasts 	7776
scalar LocScenario.node[4].nic.mac1609_4 	SentPackets 	2281
scalar LocScenario.node[4].nic.mac1609_4 	SNIRLostPackets 	0
scalar LocScenario.node[4].nic.mac1609_4 	RXTXLostPackets 	0
scalar LocScenario.node[4].nic.mac1609_4 	TotalLostPackets 	0
scalar LocScenario.node[4].nic.mac1609_4 	DroppedPacketsInMac 	0
scalar LocScenario.node[4].nic.mac1609_4 	TooLittleTime 	0
scalar LocScenario.node[4].nic.mac1609_4 	TimesIntoBackoff 	2281
scalar LocScenario.node[4].nic.mac1609_4 	SlotsBackoff 	3370
scalar LocScenario.node[4].nic.mac1609_4 	NumInternalContention 	0
scalar LocScenario.node[4].nic.mac1609_4 	totalBusyTime 	1.048209
scalar LocScenario.node[4].veinsmobility 	startTime 	30.1
scalar LocScenario.node[4].veinsmobility 	totalTime 	228
scalar LocScenario.node[4].veinsmobility 	stopTime 	258.2
scalar LocScenario.node[4].veinsmobility 	minSpeed 	10.450018604461
scalar LocScenario.node[4].veinsmobility 	maxSpeed 	10.49999637733
scalar LocScenario.node[4].veinsmobility 	totalDistance 	2388.692001514
scalar LocScenario.node[4].veinsmobility 	totalCO2Emission 	393.81568305045
scalar LocScenario.node[9].appl 	generatedWSMs 	0
scalar LocScenario.node[9].appl 	receivedWSMs 	0
scalar LocScenario.node[9].appl 	generatedBSMs 	2040
scalar LocScenario.node[9].appl 	receivedBSMs 	7595
scalar LocScenario.node[9].appl 	generatedWSAs 	0
scalar LocScenario.node[9].appl 	receivedWSAs 	0
scalar LocScenario.node[9].appl 	rmseSUMGPS 	698145.23322862
scalar LocScenario.node[9].appl 	rmseSUMCP 	423100.19371566
scalar LocScenario.node[9].appl 	delaySum 	0.85964245704442
scalar LocScenario.node[9].nic.phy80211p 	busyTime 	0.0038719607843135
scalar LocScenario.node[9].nic.mac1609_4 	ReceivedUnicastPackets 	0
scalar LocScenario.node[9].nic.mac1609_4 	ReceivedBroadcasts 	7595
scalar LocScenario.node[9].nic.mac1609_4 	SentPackets 	2040
scalar LocScenario.node[9].nic.mac1609_4 	SNIRLostPackets 	0
scalar LocScenario.node[9].nic.mac1609_4 	RXTXLostPackets 	0
scalar LocScenario.node[9].nic.mac1609_4 	TotalLostPackets 	0
scalar LocScenario.node[9].nic.mac1609_4 	DroppedPacketsInMac 	0
scalar LocScenario.node[9].nic.mac1609_4 	TooLittleTime 	0
scalar LocScenario.node[9].nic.mac1609_4 	TimesIntoBackoff 	2040
scalar LocScenario.node[9].nic.mac1609_4 	SlotsBackoff 	2960
scalar LocScenario.node[9].nic.mac1609_4 	NumInternalContention 	0
scalar LocScenario.node[9].nic.mac1609_4 	totalBusyTime 	1.00408
scalar LocScenario.node[9].veinsmobility 	startTime 	60.1
scalar LocScenario.node[9].veinsmobility 	totalTime 	203.9
scalar LocScenario.node[9].veinsmobility 	stopTime 	264.1
scalar LocScenario.node[9].veinsmobility 	minSpeed 	10.45000110236
scalar LocScenario.node[9].veinsmobility 	maxSpeed 	10.499996315152
scalar LocScenario.node[9].veinsmobility 	totalDistance 	2133.7929358805
scalar LocScenario.node[9].veinsmobility 	totalCO2Emission 	352.0440226355
scalar LocScenario.node[6].appl 	generatedWSMs 	0
scalar LocScenario.node[6].appl 	receivedWSMs 	0
scalar LocScenario.node[6].appl 	generatedBSMs 	2281
scalar LocScenario.node[6].appl 	receivedBSMs 	7997
scalar LocScenario.node[6].appl 	generatedWSAs 	0
scalar LocScenario.node[6].appl 	receivedWSAs 	0
scalar LocScenario.node[6].appl 	rmseSUMGPS 	23090.66745963
scalar LocScenario.node[6].appl 	rmseSUMCP 	249536.16904518
scalar LocScenario.node[6].appl 	delaySum 	0.89571168474692
scalar LocScenario.node[6].nic.phy80211p 	busyTime 	0.0036461551950897
scalar LocScenario.node[6].nic.mac1609_4 	ReceivedUnicastPackets 	0
scalar LocScenario.node[6].nic.mac1609_4 	ReceivedBroadcasts 	7997
scalar LocScenario.node[6].nic.mac1609_4 	SentPackets 	2281
scalar LocScenario.node[6].nic.mac1609_4 	SNIRLostPackets 	0
scalar LocScenario.node[6].nic.mac1609_4 	RXTXLostPackets 	0
scalar LocScenario.node[6].nic.mac1609_4 	TotalLostPackets 	0
scalar LocScenario.node[6].nic.mac1609_4 	DroppedPacketsInMac 	0
scalar LocScenario.node[6].nic.mac1609_4 	TooLittleTime 	0
scalar LocScenario.node[6].nic.mac1609_4 	TimesIntoBackoff 	2281
scalar LocScenario.node[6].nic.mac1609_4 	SlotsBackoff 	3348
scalar LocScenario.node[6].nic.mac1609_4 	NumInternalContention 	0
scalar LocScenario.node[6].nic.mac1609_4 	totalBusyTime 	1.071193
scalar LocScenario.node[6].veinsmobility 	startTime 	45.1
scalar LocScenario.node[6].veinsmobility 	totalTime 	228
scalar LocScenario.node[6].veinsmobility 	stopTime 	273.2
scalar LocScenario.node[6].veinsmobility 	minSpeed 	10.450002551789
scalar LocScenario.node[6].veinsmobility 	maxSpeed 	10.499996971502
scalar LocScenario.node[6].veinsmobility 	totalDistance 	2392.4599819832
scalar LocScenario.node[6].veinsmobility 	totalCO2Emission 	393.36664297787
scalar LocScenario.node[11].appl 	generatedWSMs 	0
scalar LocScenario.node[11].appl 	receivedWSMs 	0
scalar LocScenario.node[11].appl 	generatedBSMs 	2040
scalar LocScenario.node[11].appl 	receivedBSMs 	7818
scalar LocScenario.node[11].appl 	generatedWSAs 	0
scalar LocScenario.node[11].appl 	receivedWSAs 	0
scalar LocScenario.node[11].appl 	rmseSUMGPS 	716829.15857198
scalar LocScenario.node[11].appl 	rmseSUMCP 	1035585.5364684
scalar LocScenario.node[11].appl 	delaySum 	0.87560740897379
scalar LocScenario.node[11].nic.phy80211p 	busyTime 	0.0039856470588233
scalar LocScenario.node[11].nic.mac1609_4 	ReceivedUnicastPackets 	0
scalar LocScenario.node[11].nic.mac1609_4 	ReceivedBroadcasts 	7818
scalar LocScenario.node[11].nic.mac1609_4 	SentPackets 	2040
scalar LocScenario.node[11].nic.mac1609_4 	SNIRLostPackets 	0
scalar LocScenario.node[11].nic.mac1609_4 	RXTXLostPackets 	0
scalar LocScenario.node[11].nic.mac1609_4 	TotalLostPackets 	0
scalar LocScenario.node[11].nic.mac1609_4 	DroppedPacketsInMac 	0
scalar LocScenario.node[11].nic.mac1609_4 	TooLittleTime 	0
scalar LocScenario.node[11].nic.mac1609_4 	TimesIntoBackoff 	2040
scalar LocScenario.node[11].nic.mac1609_4 	SlotsBackoff 	3023
scalar LocScenario.node[11].nic.mac1609_4 	NumInternalContention 	0
scalar LocScenario.node[11].nic.mac1609_4 	totalBusyTime 	1.027272
scalar LocScenario.node[11].veinsmobility 	startTime 	75.1
scalar LocScenario.node[11].veinsmobility 	totalTime 	203.9
scalar LocScenario.node[11].veinsmobility 	stopTime 	279.1
scalar LocScenario.node[11].veinsmobility 	minSpeed 	10.450002169271
scalar LocScenario.node[11].veinsmobility 	maxSpeed 	10.499992481235
scalar LocScenario.node[11].veinsmobility 	totalDistance 	2138.6750580658
scalar LocScenario.node[11].veinsmobility 	totalCO2Emission 	351.55370187947
scalar LocScenario.node[8].appl 	generatedWSMs 	0
scalar LocScenario.node[8].appl 	receivedWSMs 	0
scalar LocScenario.node[8].appl 	generatedBSMs 	2281
scalar LocScenario.node[8].appl 	receivedBSMs 	8217
scalar LocScenario.node[8].appl 	generatedWSAs 	0
scalar LocScenario.node[8].appl 	receivedWSAs 	0
scalar LocScenario.node[8].appl 	rmseSUMGPS 	93575.495713322
scalar LocScenario.node[8].appl 	rmseSUMCP 	272304.17713932
scalar LocScenario.node[8].appl 	delaySum 	4.7802419494712e+183
scalar LocScenario.node[8].nic.phy80211p 	busyTime 	0.0037464620780358
scalar LocScenario.node[8].nic.mac1609_4 	ReceivedUnicastPackets 	0
scalar LocScenario.node[8].nic.mac1609_4 	ReceivedBroadcasts 	8217
scalar LocScenario.node[8].nic.mac1609_4 	SentPackets 	2281
scalar LocScenario.node[8].nic.mac1609_4 	SNIRLostPackets 	0
scalar LocScenario.node[8].nic.mac1609_4 	RXTXLostPackets 	0
scalar LocScenario.node[8].nic.mac1609_4 	TotalLostPackets 	0
scalar LocScenario.node[8].nic.mac1609_4 	DroppedPacketsInMac 	0
scalar LocScenario.node[8].nic.mac1609_4 	TooLittleTime 	0
scalar LocScenario.node[8].nic.mac1609_4 	TimesIntoBackoff 	2281
scalar LocScenario.node[8].nic.mac1609_4 	SlotsBackoff 	3307
scalar LocScenario.node[8].nic.mac1609_4 	NumInternalContention 	0
scalar LocScenario.node[8].nic.mac1609_4 	totalBusyTime 	1.094073
scalar LocScenario.node[8].veinsmobility 	startTime 	60.1
scalar LocScenario.node[8].veinsmobility 	totalTime 	228
scalar LocScenario.node[8].veinsmobility 	stopTime 	288.2
scalar LocScenario.node[8].veinsmobility 	minSpeed 	10.450081738515
scalar LocScenario.node[8].veinsmobility 	maxSpeed 	10.499959871115
scalar LocScenario.node[8].veinsmobility 	totalDistance 	2392.3326569609
scalar LocScenario.node[8].veinsmobility 	totalCO2Emission 	393.22291422134
scalar LocScenario.node[13].appl 	generatedWSMs 	0
scalar LocScenario.node[13].appl 	receivedWSMs 	0
scalar LocScenario.node[13].appl 	generatedBSMs 	2040
scalar LocScenario.node[13].appl 	receivedBSMs 	8039
scalar LocScenario.node[13].appl 	generatedWSAs 	0
scalar LocScenario.node[13].appl 	receivedWSAs 	0
scalar LocScenario.node[13].appl 	rmseSUMGPS 	706638.03580034
scalar LocScenario.node[13].appl 	rmseSUMCP 	1022237.6442065
scalar LocScenario.node[13].appl 	delaySum 	0.90933054627801
scalar LocScenario.node[13].nic.phy80211p 	busyTime 	0.00409831372549
scalar LocScenario.node[13].nic.mac1609_4 	ReceivedUnicastPackets 	0
scalar LocScenario.node[13].nic.mac1609_4 	ReceivedBroadcasts 	8039
scalar LocScenario.node[13].nic.mac1609_4 	SentPackets 	2040
scalar LocScenario.node[13].nic.mac1609_4 	SNIRLostPackets 	0
scalar LocScenario.node[13].nic.mac1609_4 	RXTXLostPackets 	0
scalar LocScenario.node[13].nic.mac1609_4 	TotalLostPackets 	0
scalar LocScenario.node[13].nic.mac1609_4 	DroppedPacketsInMac 	0
scalar LocScenario.node[13].nic.mac1609_4 	TooLittleTime 	0
scalar LocScenario.node[13].nic.mac1609_4 	TimesIntoBackoff 	2040
scalar LocScenario.node[13].nic.mac1609_4 	SlotsBackoff 	3034
scalar LocScenario.node[13].nic.mac1609_4 	NumInternalContention 	0
scalar LocScenario.node[13].nic.mac1609_4 	totalBusyTime 	1.050256
scalar LocScenario.node[13].veinsmobility 	startTime 	90.1
scalar LocScenario.node[13].veinsmobility 	totalTime 	203.9
scalar LocScenario.node[13].veinsmobility 	stopTime 	294.1
scalar LocScenario.node[13].veinsmobility 	minSpeed 	10.450026087707
scalar LocScenario.node[13].veinsmobility 	maxSpeed 	10.499944375013
scalar LocScenario.node[13].veinsmobility 	totalDistance 	2133.9014885217
scalar LocScenario.node[13].veinsmobility 	totalCO2Emission 	351.97791213933
scalar LocScenario.node[10].appl 	generatedWSMs 	0
scalar LocScenario.node[10].appl 	receivedWSMs 	0
scalar LocScenario.node[10].appl 	generatedBSMs 	2281
scalar LocScenario.node[10].appl 	receivedBSMs 	8431
scalar LocScenario.node[10].appl 	generatedWSAs 	0
scalar LocScenario.node[10].appl 	receivedWSAs 	0
scalar LocScenario.node[10].appl 	rmseSUMGPS 	960056.27139637
scalar LocScenario.node[10].appl 	rmseSUMCP 	301352.10471981
scalar LocScenario.node[10].appl 	delaySum 	0.94468810424074
scalar LocScenario.node[10].nic.phy80211p 	busyTime 	0.0038440333187197
scalar LocScenario.node[10].nic.mac1609_4 	ReceivedUnicastPackets 	0
scalar LocScenario.node[10].nic.mac1609_4 	ReceivedBroadcasts 	8431
scalar LocScenario.node[10].nic.mac1609_4 	SentPackets 	2281
scalar LocScenario.node[10].nic.mac1609_4 	SNIRLostPackets 	0
scalar LocScenario.node[10].nic.mac1609_4 	RXTXLostPackets 	0
scalar LocScenario.node[10].nic.mac1609_4 	TotalLostPackets 	0
scalar LocScenario.node[10].nic.mac1609_4 	DroppedPacketsInMac 	0
scalar LocScenario.node[10].nic.mac1609_4 	TooLittleTime 	0
scalar LocScenario.node[10].nic.mac1609_4 	TimesIntoBackoff 	2281
scalar LocScenario.node[10].nic.mac1609_4 	SlotsBackoff 	3450
scalar LocScenario.node[10].nic.mac1609_4 	NumInternalContention 	0
scalar LocScenario.node[10].nic.mac1609_4 	totalBusyTime 	1.116329
scalar LocScenario.node[10].veinsmobility 	startTime 	75.1
scalar LocScenario.node[10].veinsmobility 	totalTime 	228
scalar LocScenario.node[10].veinsmobility 	stopTime 	303.2
scalar LocScenario.node[10].veinsmobility 	minSpeed 	10.450022994122
scalar LocScenario.node[10].veinsmobility 	maxSpeed 	10.499987147027
scalar LocScenario.node[10].veinsmobility 	totalDistance 	2388.7312085076
scalar LocScenario.node[10].veinsmobility 	totalCO2Emission 	393.45414185976
scalar LocScenario.node[15].appl 	generatedWSMs 	0
scalar LocScenario.node[15].appl 	receivedWSMs 	0
scalar LocScenario.node[15].appl 	generatedBSMs 	2040
scalar LocScenario.node[15].appl 	receivedBSMs 	8262
scalar LocScenario.node[15].appl 	generatedWSAs 	0
scalar LocScenario.node[15].appl 	receivedWSAs 	0
scalar LocScenario.node[15].appl 	rmseSUMGPS 	1181244.8897563
scalar LocScenario.node[15].appl 	rmseSUMCP 	1535055.3740807
scalar LocScenario.node[15].appl 	delaySum 	0.92466250764895
scalar LocScenario.node[15].nic.phy80211p 	busyTime 	0.0042119999999998
scalar LocScenario.node[15].nic.mac1609_4 	ReceivedUnicastPackets 	0
scalar LocScenario.node[15].nic.mac1609_4 	ReceivedBroadcasts 	8262
scalar LocScenario.node[15].nic.mac1609_4 	SentPackets 	2040
scalar LocScenario.node[15].nic.mac1609_4 	SNIRLostPackets 	0
scalar LocScenario.node[15].nic.mac1609_4 	RXTXLostPackets 	0
scalar LocScenario.node[15].nic.mac1609_4 	TotalLostPackets 	0
scalar LocScenario.node[15].nic.mac1609_4 	DroppedPacketsInMac 	0
scalar LocScenario.node[15].nic.mac1609_4 	TooLittleTime 	0
scalar LocScenario.node[15].nic.mac1609_4 	TimesIntoBackoff 	2040
scalar LocScenario.node[15].nic.mac1609_4 	SlotsBackoff 	3036
scalar LocScenario.node[15].nic.mac1609_4 	NumInternalContention 	0
scalar LocScenario.node[15].nic.mac1609_4 	totalBusyTime 	1.073448
scalar LocScenario.node[15].veinsmobility 	startTime 	105.1
scalar LocScenario.node[15].veinsmobility 	totalTime 	203.9
scalar LocScenario.node[15].veinsmobility 	stopTime 	309.1
scalar LocScenario.node[15].veinsmobility 	minSpeed 	10.450030095514
scalar LocScenario.node[15].veinsmobility 	maxSpeed 	10.499988470855
scalar LocScenario.node[15].veinsmobility 	totalDistance 	2138.7454005892
scalar LocScenario.node[15].veinsmobility 	totalCO2Emission 	351.77238547109
scalar LocScenario.node[12].appl 	generatedWSMs 	0
scalar LocScenario.node[12].appl 	receivedWSMs 	0
scalar LocScenario.node[12].appl 	generatedBSMs 	2281
scalar LocScenario.node[12].appl 	receivedBSMs 	8643
scalar LocScenario.node[12].appl 	generatedWSAs 	0
scalar LocScenario.node[12].appl 	receivedWSAs 	0
scalar LocScenario.node[12].appl 	rmseSUMGPS 	35069.096750972
scalar LocScenario.node[12].appl 	rmseSUMCP 	316490.61215453
scalar LocScenario.node[12].appl 	delaySum 	4.5330361814458e+26
scalar LocScenario.node[12].nic.phy80211p 	busyTime 	0.0039406926786495
scalar LocScenario.node[12].nic.mac1609_4 	ReceivedUnicastPackets 	0
scalar LocScenario.node[12].nic.mac1609_4 	ReceivedBroadcasts 	8643
scalar LocScenario.node[12].nic.mac1609_4 	SentPackets 	2281
scalar LocScenario.node[12].nic.mac1609_4 	SNIRLostPackets 	0
scalar LocScenario.node[12].nic.mac1609_4 	RXTXLostPackets 	0
scalar LocScenario.node[12].nic.mac1609_4 	TotalLostPackets 	0
scalar LocScenario.node[12].nic.mac1609_4 	DroppedPacketsInMac 	0
scalar LocScenario.node[12].nic.mac1609_4 	TooLittleTime 	0
scalar LocScenario.node[12].nic.mac1609_4 	TimesIntoBackoff 	2281
scalar LocScenario.node[12].nic.mac1609_4 	SlotsBackoff 	3460
scalar LocScenario.node[12].nic.mac1609_4 	NumInternalContention 	0
scalar LocScenario.node[12].nic.mac1609_4 	totalBusyTime 	1.138377
scalar LocScenario.node[12].veinsmobility 	startTime 	90.1
scalar LocScenario.node[12].veinsmobility 	totalTime 	228
scalar LocScenario.node[12].veinsmobility 	stopTime 	318.2
scalar LocScenario.node[12].veinsmobility 	minSpeed 	10.45003706729
scalar LocScenario.node[12].veinsmobility 	maxSpeed 	10.499991845188
scalar LocScenario.node[12].veinsmobility 	totalDistance 	2392.4511216903
scalar LocScenario.node[12].veinsmobility 	totalCO2Emission 	394.05825149173
scalar LocScenario.node[17].appl 	generatedWSMs 	0
scalar LocScenario.node[17].appl 	receivedWSMs 	0
scalar LocScenario.node[17].appl 	generatedBSMs 	2040
scalar LocScenario.node[17].appl 	receivedBSMs 	8482
scalar LocScenario.node[17].appl 	generatedWSAs 	0
scalar LocScenario.node[17].appl 	receivedWSAs 	0
scalar LocScenario.node[17].appl 	rmseSUMGPS 	675034.72693757
scalar LocScenario.node[17].appl 	rmseSUMCP 	643540.68209851
scalar LocScenario.node[17].appl 	delaySum 	0.94962852271169
scalar LocScenario.node[17].nic.phy80211p 	busyTime 	0.0043241568627449
scalar LocScenario.node[17].nic.mac1609_4 	ReceivedUnicastPackets 	0
scalar LocScenario.node[17].nic.mac1609_4 	ReceivedBroadcasts 	8482
scalar LocScenario.node[17].nic.mac1609_4 	SentPackets 	2040
scalar LocScenario.node[17].nic.mac1609_4 	SNIRLostPackets 	0
scalar LocScenario.node[17].nic.mac1609_4 	RXTXLostPackets 	0
scalar LocScenario.node[17].nic.mac1609_4 	TotalLostPackets 	0
scalar LocScenario.node[17].nic.mac1609_4 	DroppedPacketsInMac 	0
scalar LocScenario.node[17].nic.mac1609_4 	TooLittleTime 	0
scalar LocScenario.node[17].nic.mac1609_4 	TimesIntoBackoff 	2040
scalar LocScenario.node[17].nic.mac1609_4 	SlotsBackoff 	3104
scalar LocScenario.node[17].nic.mac1609_4 	NumInternalContention 	0
scalar LocScenario.node[17].nic.mac1609_4 	totalBusyTime 	1.096328
scalar LocScenario.node[17].veinsmobility 	startTime 	120.1
scalar LocScenario.node[17].veinsmobility 	totalTime 	203.9
scalar LocScenario.node[17].veinsmobility 	stopTime 	324.1
scalar LocScenario.node[17].veinsmobility 	minSpeed 	10.450001598592
scalar LocScenario.node[17].veinsmobility 	maxSpeed 	10.499981793307
scalar LocScenario.node[17].veinsmobility 	totalDistance 	2133.8857714568
scalar LocScenario.node[17].veinsmobility 	totalCO2Emission 	351.58951253135
scalar LocScenario.node[14].appl 	generatedWSMs 	0
scalar LocScenario.node[14].appl 	receivedWSMs 	0
scalar LocScenario.node[14].appl 	generatedBSMs 	2281
scalar LocScenario.node[14].appl 	receivedBSMs 	8857
scalar LocScenario.node[14].appl 	generatedWSAs 	0
scalar LocScenario.node[14].appl 	receivedWSAs 	0
scalar LocScenario.node[14].appl 	rmseSUMGPS 	53695.698603963
scalar LocScenario.node[14].appl 	rmseSUMCP 	370213.53056427
scalar LocScenario.node[14].appl 	delaySum 	0.99899004013588
scalar LocScenario.node[14].nic.phy80211p 	busyTime 	0.0040382639193334
scalar LocScenario.node[14].nic.mac1609_4 	ReceivedUnicastPackets 	0
scalar LocScenario.node[14].nic.mac1609_4 	ReceivedBroadcasts 	8857
scalar LocScenario.node[14].nic.mac1609_4 	SentPackets 	2281
scalar LocScenario.node[14].nic.mac1609_4 	SNIRLostPackets 	0
scalar LocScenario.node[14].nic.mac1609_4 	RXTXLostPackets 	0
scalar LocScenario.node[14].nic.mac1609_4 	TotalLostPackets 	0
scalar LocScenario.node[14].nic.mac1609_4 	DroppedPacketsInMac 	0
scalar LocScenario.node[14].nic.mac1609_4 	TooLittleTime 	0
scalar LocScenario.node[14].nic.mac1609_4 	TimesIntoBackoff 	2281
scalar LocScenario.node[14].nic.mac1609_4 	SlotsBackoff 	3480
scalar LocScenario.node[14].nic.mac1609_4 	NumInternalContention 	0
scalar LocScenario.node[14].nic.mac1609_4 	totalBusyTime 	1.160633
scalar LocScenario.node[14].veinsmobility 	startTime 	105.1
scalar LocScenario.node[14].veinsmobility 	totalTime 	228
scalar LocScenario.node[14].veinsmobility 	stopTime 	333.2
scalar LocScenario.node[14].veinsmobility 	minSpeed 	10.450003688107
scalar LocScenario.node[14].veinsmobility 	maxSpeed 	10.499982957018
scalar LocScenario.node[14].veinsmobility 	totalDistance 	2392.2946866713
scalar LocScenario.node[14].veinsmobility 	totalCO2Emission 	393.89392007584
scalar LocScenario.node[19].appl 	generatedWSMs 	0
scalar LocScenario.node[19].appl 	receivedWSMs 	0
scalar LocScenario.node[19].appl 	generatedBSMs 	2040
scalar LocScenario.node[19].appl 	receivedBSMs 	8691
scalar LocScenario.node[19].appl 	generatedWSAs 	0
scalar LocScenario.node[19].appl 	receivedWSAs 	0
scalar LocScenario.node[19].appl 	rmseSUMGPS 	1653631.0669846
scalar LocScenario.node[19].appl 	rmseSUMCP 	1064091.4022481
scalar LocScenario.node[19].appl 	delaySum 	0.97297113239247
scalar LocScenario.node[19].nic.phy80211p 	busyTime 	0.0044307058823527
scalar LocScenario.node[19].nic.mac1609_4 	ReceivedUnicastPackets 	0
scalar LocScenario.node[19].nic.mac1609_4 	ReceivedBroadcasts 	8691
scalar LocScenario.node[19].nic.mac1609_4 	SentPackets 	2040
scalar LocScenario.node[19].nic.mac1609_4 	SNIRLostPackets 	0
scalar LocScenario.node[19].nic.mac1609_4 	RXTXLostPackets 	0
scalar LocScenario.node[19].nic.mac1609_4 	TotalLostPackets 	0
scalar LocScenario.node[19].nic.mac1609_4 	DroppedPacketsInMac 	0
scalar LocScenario.node[19].nic.mac1609_4 	TooLittleTime 	0
scalar LocScenario.node[19].nic.mac1609_4 	TimesIntoBackoff 	2040
scalar LocScenario.node[19].nic.mac1609_4 	SlotsBackoff 	3023
scalar LocScenario.node[19].nic.mac1609_4 	NumInternalContention 	0
scalar LocScenario.node[19].nic.mac1609_4 	totalBusyTime 	1.118064
scalar LocScenario.node[19].veinsmobility 	startTime 	135.1
scalar LocScenario.node[19].veinsmobility 	totalTime 	203.9
scalar LocScenario.node[19].veinsmobility 	stopTime 	339.1
scalar LocScenario.node[19].veinsmobility 	minSpeed 	10.450028223509
scalar LocScenario.node[19].veinsmobility 	maxSpeed 	10.499998998502
scalar LocScenario.node[19].veinsmobility 	totalDistance 	2138.7821390437
scalar LocScenario.node[19].veinsmobility 	totalCO2Emission 	352.10841418987
scalar LocScenario.node[16].appl 	generatedWSMs 	0
scalar LocScenario.node[16].appl 	receivedWSMs 	0
scalar LocScenario.node[16].appl 	generatedBSMs 	2281
scalar LocScenario.node[16].appl 	receivedBSMs 	9077
scalar LocScenario.node[16].appl 	generatedWSAs 	0
scalar LocScenario.node[16].appl 	receivedWSAs 	0
scalar LocScenario.node[16].appl 	rmseSUMGPS 	60240.761864466
scalar LocScenario.node[16].appl 	rmseSUMCP 	399570.88184528
scalar LocScenario.node[16].appl 	delaySum 	3.94825335806e+26
scalar LocScenario.node[16].nic.phy80211p 	busyTime 	0.0041385708022795
scalar LocScenario.node[16].nic.mac1609_4 	ReceivedUnicastPackets 	0
scalar LocScenario.node[16].nic.mac1609_4 	ReceivedBroadcasts 	9077
scalar LocScenario.node[16].nic.mac1609_4 	SentPackets 	2281
scalar LocScenario.node[16].nic.mac1609_4 	SNIRLostPackets 	0
scalar LocScenario.node[16].nic.mac1609_4 	RXTXLostPackets 	0
scalar LocScenario.node[16].nic.mac1609_4 	TotalLostPackets 	0
scalar LocScenario.node[16].nic.mac1609_4 	DroppedPacketsInMac 	0
scalar LocScenario.node[16].nic.mac1609_4 	TooLittleTime 	0
scalar LocScenario.node[16].nic.mac1609_4 	TimesIntoBackoff 	2281
scalar LocScenario.node[16].nic.mac1609_4 	SlotsBackoff 	3426
scalar LocScenario.node[16].nic.mac1609_4 	NumInternalContention 	0
scalar LocScenario.node[16].nic.mac1609_4 	totalBusyTime 	1.183513
scalar LocScenario.node[16].veinsmobility 	startTime 	120.1
scalar LocScenario.node[16].veinsmobility 	totalTime 	228
scalar LocScenario.node[16].veinsmobility 	stopTime 	348.2
scalar LocScenario.node[16].veinsmobility 	minSpeed 	10.450007236283
scalar LocScenario.node[16].veinsmobility 	maxSpeed 	10.499999799451
scalar LocScenario.node[16].veinsmobility 	totalDistance 	2392.3768352437
scalar LocScenario.node[16].veinsmobility 	totalCO2Emission 	393.75051975078
scalar LocScenario.node[21].appl 	generatedWSMs 	0
scalar LocScenario.node[21].appl 	receivedWSMs 	0
scalar LocScenario.node[21].appl 	generatedBSMs 	2040
scalar LocScenario.node[21].appl 	receivedBSMs 	8889
scalar LocScenario.node[21].appl 	generatedWSAs 	0
scalar LocScenario.node[21].appl 	receivedWSAs 	0
scalar LocScenario.node[21].appl 	rmseSUMGPS 	884112.50801386
scalar LocScenario.node[21].appl 	rmseSUMCP 	1072342.8196384
scalar LocScenario.node[21].appl 	delaySum 	0.99509390117049
scalar LocScenario.node[21].nic.phy80211p 	busyTime 	0.0045316470588233
scalar LocScenario.node[21].nic.mac1609_4 	ReceivedUnicastPackets 	0
scalar LocScenario.node[21].nic.mac1609_4 	ReceivedBroadcasts 	8889
scalar LocScenario.node[21].nic.mac1609_4 	SentPackets 	2040
scalar LocScenario.node[21].nic.mac1609_4 	SNIRLostPackets 	0
scalar LocScenario.node[21].nic.mac1609_4 	RXTXLostPackets 	0
scalar LocScenario.node[21].nic.mac1609_4 	TotalLostPackets 	0
scalar LocScenario.node[21].nic.mac1609_4 	DroppedPacketsInMac 	0
scalar LocScenario.node[21].nic.mac1609_4 	TooLittleTime 	0
scalar LocScenario.node[21].nic.mac1609_4 	TimesIntoBackoff 	2040
scalar LocScenario.node[21].nic.mac1609_4 	SlotsBackoff 	2998
scalar LocScenario.node[21].nic.mac1609_4 	NumInternalContention 	0
scalar LocScenario.node[21].nic.mac1609_4 	totalBusyTime 	1.138656
scalar LocScenario.node[21].veinsmobility 	startTime 	150.1
scalar LocScenario.node[21].veinsmobility 	totalTime 	203.9
scalar LocScenario.node[21].veinsmobility 	stopTime 	354.1
scalar LocScenario.node[21].veinsmobility 	minSpeed 	10.45001411055
scalar LocScenario.node[21].veinsmobility 	maxSpeed 	10.499949118029
scalar LocScenario.node[21].veinsmobility 	totalDistance 	2138.7174093721
scalar LocScenario.node[21].veinsmobility 	totalCO2Emission 	351.67770816374
scalar LocScenario.node[18].appl 	generatedWSMs 	0
scalar LocScenario.node[18].appl 	receivedWSMs 	0
scalar LocScenario.node[18].appl 	generatedBSMs 	2281
scalar LocScenario.node[18].appl 	receivedBSMs 	9300
scalar LocScenario.node[18].appl 	generatedWSAs 	0
scalar LocScenario.node[18].appl 	receivedWSAs 	0
scalar LocScenario.node[18].appl 	rmseSUMGPS 	698028.30426924
scalar LocScenario.node[18].appl 	rmseSUMCP 	432633.61457221
scalar LocScenario.node[18].appl 	delaySum 	4.4221905760676
scalar LocScenario.node[18].nic.phy80211p 	busyTime 	0.0042402455063566
scalar LocScenario.node[18].nic.mac1609_4 	ReceivedUnicastPackets 	0
scalar LocScenario.node[18].nic.mac1609_4 	ReceivedBroadcasts 	9300
scalar LocScenario.node[18].nic.mac1609_4 	SentPackets 	2281
scalar LocScenario.node[18].nic.mac1609_4 	SNIRLostPackets 	0
scalar LocScenario.node[18].nic.mac1609_4 	RXTXLostPackets 	0
scalar LocScenario.node[18].nic.mac1609_4 	TotalLostPackets 	0
scalar LocScenario.node[18].nic.mac1609_4 	DroppedPacketsInMac 	0
scalar LocScenario.node[18].nic.mac1609_4 	TooLittleTime 	0
scalar LocScenario.node[18].nic.mac1609_4 	TimesIntoBackoff 	2281
scalar LocScenario.node[18].nic.mac1609_4 	SlotsBackoff 	3460
scalar LocScenario.node[18].nic.mac1609_4 	NumInternalContention 	0
scalar LocScenario.node[18].nic.mac1609_4 	totalBusyTime 	1.206705
scalar LocScenario.node[18].veinsmobility 	startTime 	135.1
scalar LocScenario.node[18].veinsmobility 	totalTime 	228
scalar LocScenario.node[18].veinsmobility 	stopTime 	363.2
scalar LocScenario.node[18].veinsmobility 	minSpeed 	10.450020771113
scalar LocScenario.node[18].veinsmobility 	maxSpeed 	10.499995032558
scalar LocScenario.node[18].veinsmobility 	totalDistance 	2388.7719398498
scalar LocScenario.node[18].veinsmobility 	totalCO2Emission 	393.7697789929
scalar LocScenario.node[23].appl 	generatedWSMs 	0
scalar LocScenario.node[23].appl 	receivedWSMs 	0
scalar LocScenario.node[23].appl 	generatedBSMs 	2040
scalar LocScenario.node[23].appl 	receivedBSMs 	9096
scalar LocScenario.node[23].appl 	generatedWSAs 	0
scalar LocScenario.node[23].appl 	receivedWSAs 	0
scalar LocScenario.node[23].appl 	rmseSUMGPS 	936067.92843231
scalar LocScenario.node[23].appl 	rmseSUMCP 	1096772.0345146
scalar LocScenario.node[23].appl 	delaySum 	1.0181870936145
scalar LocScenario.node[23].nic.phy80211p 	busyTime 	0.004637176470588
scalar LocScenario.node[23].nic.mac1609_4 	ReceivedUnicastPackets 	0
scalar LocScenario.node[23].nic.mac1609_4 	ReceivedBroadcasts 	9096
scalar LocScenario.node[23].nic.mac1609_4 	SentPackets 	2040
scalar LocScenario.node[23].nic.mac1609_4 	SNIRLostPackets 	0
scalar LocScenario.node[23].nic.mac1609_4 	RXTXLostPackets 	0
scalar LocScenario.node[23].nic.mac1609_4 	TotalLostPackets 	0
scalar LocScenario.node[23].nic.mac1609_4 	DroppedPacketsInMac 	0
scalar LocScenario.node[23].nic.mac1609_4 	TooLittleTime 	0
scalar LocScenario.node[23].nic.mac1609_4 	TimesIntoBackoff 	2040
scalar LocScenario.node[23].nic.mac1609_4 	SlotsBackoff 	3087
scalar LocScenario.node[23].nic.mac1609_4 	NumInternalContention 	0
scalar LocScenario.node[23].nic.mac1609_4 	totalBusyTime 	1.160184
scalar LocScenario.node[23].veinsmobility 	startTime 	165.1
scalar LocScenario.node[23].veinsmobility 	totalTime 	203.9
scalar LocScenario.node[23].veinsmobility 	stopTime 	369.1
scalar LocScenario.node[23].veinsmobility 	minSpeed 	10.450009299361
scalar LocScenario.node[23].veinsmobility 	maxSpeed 	10.499997685745
scalar LocScenario.node[23].veinsmobility 	totalDistance 	2138.8317057281
scalar LocScenario.node[23].veinsmobility 	totalCO2Emission 	351.52922762152
scalar LocScenario.node[20].appl 	generatedWSMs 	0
scalar LocScenario.node[20].appl 	receivedWSMs 	0
scalar LocScenario.node[20].appl 	generatedBSMs 	2281
scalar LocScenario.node[20].appl 	receivedBSMs 	9520
scalar LocScenario.node[20].appl 	generatedWSAs 	0
scalar LocScenario.node[20].appl 	receivedWSAs 	0
scalar LocScenario.node[20].appl 	rmseSUMGPS 	46698.837936979
scalar LocScenario.node[20].appl 	rmseSUMCP 	437605.17000476
scalar LocScenario.node[20].appl 	delaySum 	1.0691259416159
scalar LocScenario.node[20].nic.phy80211p 	busyTime 	0.0043405523893027
scalar LocScenario.node[20].nic.mac1609_4 	ReceivedUnicastPackets 	0
scalar LocScenario.node[20].nic.mac1609_4 	ReceivedBroadcasts 	9520
scalar LocScenario.node[20].nic.mac1609_4 	SentPackets 	2281
scalar LocScenario.node[20].nic.mac1609_4 	SNIRLostPackets 	0
scalar LocScenario.node[20].nic.mac1609_4 	RXTXLostPackets 	0
scalar LocScenario.node[20].nic.mac1609_4 	TotalLostPackets 	0
scalar LocScenario.node[20].nic.mac1609_4 	DroppedPacketsInMac 	0
scalar LocScenario.node[20].nic.mac1609_4 	TooLittleTime 	0
scalar LocScenario.node[20].nic.mac1609_4 	TimesIntoBackoff 	2281
scalar LocScenario.node[20].nic.mac1609_4 	SlotsBackoff 	3364
scalar LocScenario.node[20].nic.mac1609_4 	NumInternalContention 	0
scalar LocScenario.node[20].nic.mac1609_4 	totalBusyTime 	1.229585
scalar LocScenario.node[20].veinsmobility 	startTime 	150.1
scalar LocScenario.node[20].veinsmobility 	totalTime 	228
scalar LocScenario.node[20].veinsmobility 	stopTime 	378.2
scalar LocScenario.node[20].veinsmobility 	minSpeed 	10.45002188069
scalar LocScenario.node[20].veinsmobility 	maxSpeed 	10.499998371187
scalar LocScenario.node[20].veinsmobility 	totalDistance 	2392.3825016086
scalar LocScenario.node[20].veinsmobility 	totalCO2Emission 	392.99683232694
scalar LocScenario.node[25].appl 	generatedWSMs 	0
scalar LocScenario.node[25].appl 	receivedWSMs 	0
scalar LocScenario.node[25].appl 	generatedBSMs 	2040
scalar LocScenario.node[25].appl 	receivedBSMs 	9286
scalar LocScenario.node[25].appl 	generatedWSAs 	0
scalar LocScenario.node[25].appl 	receivedWSAs 	0
scalar LocScenario.node[25].appl 	rmseSUMGPS 	603681.58482435
scalar LocScenario.node[25].appl 	rmseSUMCP 	1075061.5037107
scalar LocScenario.node[25].appl 	delaySum 	1.0390980844144
scalar LocScenario.node[25].nic.phy80211p 	busyTime 	0.004734039215686
scalar LocScenario.node[25].nic.mac1609_4 	ReceivedUnicastPackets 	0
scalar LocScenario.node[25].nic.mac1609_4 	ReceivedBroadcasts 	9286
scalar LocScenario.node[25].nic.mac1609_4 	SentPackets 	2040
scalar LocScenario.node[25].nic.mac1609_4 	SNIRLostPackets 	0
scalar LocScenario.node[25].nic.mac1609_4 	RXTXLostPackets 	0
scalar LocScenario.node[25].nic.mac1609_4 	TotalLostPackets 	0
scalar LocScenario.node[25].nic.mac1609_4 	DroppedPacketsInMac 	0
scalar LocScenario.node[25].nic.mac1609_4 	TooLittleTime 	0
scalar LocScenario.node[25].nic.mac1609_4 	TimesIntoBackoff 	2040
scalar LocScenario.node[25].nic.mac1609_4 	SlotsBackoff 	3003
scalar LocScenario.node[25].nic.mac1609_4 	NumInternalContention 	0
scalar LocScenario.node[25].nic.mac1609_4 	totalBusyTime 	1.179944
scalar LocScenario.node[25].veinsmobility 	startTime 	180.1
scalar LocScenario.node[25].veinsmobility 	totalTime 	203.9
scalar LocScenario.node[25].veinsmobility 	stopTime 	384.1
scalar LocScenario.node[25].veinsmobility 	minSpeed 	10.450046359631
scalar LocScenario.node[25].veinsmobility 	maxSpeed 	10.499992716732
scalar LocScenario.node[25].veinsmobility 	totalDistance 	2138.6502756953
scalar LocScenario.node[25].veinsmobility 	totalCO2Emission 	351.32953968414
scalar LocScenario.node[22].appl 	generatedWSMs 	0
scalar LocScenario.node[22].appl 	receivedWSMs 	0
scalar LocScenario.node[22].appl 	generatedBSMs 	2281
scalar LocScenario.node[22].appl 	receivedBSMs 	9734
scalar LocScenario.node[22].appl 	generatedWSAs 	0
scalar LocScenario.node[22].appl 	receivedWSAs 	0
scalar LocScenario.node[22].appl 	rmseSUMGPS 	80893.033334043
scalar LocScenario.node[22].appl 	rmseSUMCP 	454117.36459886
scalar LocScenario.node[22].appl 	delaySum 	1.0904748014428
scalar LocScenario.node[22].nic.phy80211p 	busyTime 	0.0044381236299867
scalar LocScenario.node[22].nic.mac1609_4 	ReceivedUnicastPackets 	0
scalar LocScenario.node[22].nic.mac1609_4 	ReceivedBroadcasts 	9734
scalar LocScenario.node[22].nic.mac1609_4 	SentPackets 	2281
scalar LocScenario.node[22].nic.mac1609_4 	SNIRLostPackets 	0
scalar LocScenario.node[22].nic.mac1609_4 	RXTXLostPackets 	0
scalar LocScenario.node[22].nic.mac1609_4 	TotalLostPackets 	0
scalar LocScenario.node[22].nic.mac1609_4 	DroppedPacketsInMac 	0
scalar LocScenario.node[22].nic.mac1609_4 	TooLittleTime 	0
scalar LocScenario.node[22].nic.mac1609_4 	TimesIntoBackoff 	2281
scalar LocScenario.node[22].nic.mac1609_4 	SlotsBackoff 	3415
scalar LocScenario.node[22].nic.mac1609_4 	NumInternalContention 	0
scalar LocScenario.node[22].nic.mac1609_4 	totalBusyTime 	1.251841
scalar LocScenario.node[22].veinsmobility 	startTime 	165.1
scalar LocScenario.node[22].veinsmobility 	totalTime 	228
scalar LocScenario.node[22].veinsmobility 	stopTime 	393.2
scalar LocScenario.node[22].veinsmobility 	minSpeed 	10.450010290649
scalar LocScenario.node[22].veinsmobility 	maxSpeed 	10.499977911892
scalar LocScenario.node[22].veinsmobility 	totalDistance 	2394.7910355969
scalar LocScenario.node[22].veinsmobility 	totalCO2Emission 	393.57432671215
scalar LocScenario.node[27].appl 	generatedWSMs 	0
scalar LocScenario.node[27].appl 	receivedWSMs 	0
scalar LocScenario.node[27].appl 	generatedBSMs 	2040
scalar LocScenario.node[27].appl 	receivedBSMs 	9441
scalar LocScenario.node[27].appl 	generatedWSAs 	0
scalar LocScenario.node[27].appl 	receivedWSAs 	0
scalar LocScenario.node[27].appl 	rmseSUMGPS 	784494.53686089
scalar LocScenario.node[27].appl 	rmseSUMCP 	1542128.1805731
scalar LocScenario.node[27].appl 	delaySum 	1.0571897813109
scalar LocScenario.node[27].nic.phy80211p 	busyTime 	0.0048130588235291
scalar LocScenario.node[27].nic.mac1609_4 	ReceivedUnicastPackets 	0
scalar LocScenario.node[27].nic.mac1609_4 	ReceivedBroadcasts 	9441
scalar LocScenario.node[27].nic.mac1609_4 	SentPackets 	2040
scalar LocScenario.node[27].nic.mac1609_4 	SNIRLostPackets 	0
scalar LocScenario.node[27].nic.mac1609_4 	RXTXLostPackets 	0
scalar LocScenario.node[27].nic.mac1609_4 	TotalLostPackets 	0
scalar LocScenario.node[27].nic.mac1609_4 	DroppedPacketsInMac 	0
scalar LocScenario.node[27].nic.mac1609_4 	TooLittleTime 	0
scalar LocScenario.node[27].nic.mac1609_4 	TimesIntoBackoff 	2040
scalar LocScenario.node[27].nic.mac1609_4 	SlotsBackoff 	3006
scalar LocScenario.node[27].nic.mac1609_4 	NumInternalContention 	0
scalar LocScenario.node[27].nic.mac1609_4 	totalBusyTime 	1.196064
scalar LocScenario.node[27].veinsmobility 	startTime 	195.1
scalar LocScenario.node[27].veinsmobility 	totalTime 	203.9
scalar LocScenario.node[27].veinsmobility 	stopTime 	399.1
scalar LocScenario.node[27].veinsmobility 	minSpeed 	10.450022780639
scalar LocScenario.node[27].veinsmobility 	maxSpeed 	10.499934771867
scalar LocScenario.node[27].veinsmobility 	totalDistance 	2133.8136102033
scalar LocScenario.node[27].veinsmobility 	totalCO2Emission 	351.77917939402
scalar LocScenario.node[24].appl 	generatedWSMs 	0
scalar LocScenario.node[24].appl 	receivedWSMs 	0
scalar LocScenario.node[24].appl 	generatedBSMs 	2281
scalar LocScenario.node[24].appl 	receivedBSMs 	9948
scalar LocScenario.node[24].appl 	generatedWSAs 	0
scalar LocScenario.node[24].appl 	receivedWSAs 	0
scalar LocScenario.node[24].appl 	rmseSUMGPS 	27209.839301372
scalar LocScenario.node[24].appl 	rmseSUMCP 	425337.68925008
scalar LocScenario.node[24].appl 	delaySum 	3.94825335806e+26
scalar LocScenario.node[24].nic.phy80211p 	busyTime 	0.0045356948706707
scalar LocScenario.node[24].nic.mac1609_4 	ReceivedUnicastPackets 	0
scalar LocScenario.node[24].nic.mac1609_4 	ReceivedBroadcasts 	9948
scalar LocScenario.node[24].nic.mac1609_4 	SentPackets 	2281
scalar LocScenario.node[24].nic.mac1609_4 	SNIRLostPackets 	0
scalar LocScenario.node[24].nic.mac1609_4 	RXTXLostPackets 	0
scalar LocScenario.node[24].nic.mac1609_4 	TotalLostPackets 	0
scalar LocScenario.node[24].nic.mac1609_4 	DroppedPacketsInMac 	0
scalar LocScenario.node[24].nic.mac1609_4 	TooLittleTime 	0
scalar LocScenario.node[24].nic.mac1609_4 	TimesIntoBackoff 	2281
scalar LocScenario.node[24].nic.mac1609_4 	SlotsBackoff 	3402
scalar LocScenario.node[24].nic.mac1609_4 	NumInternalContention 	0
scalar LocScenario.node[24].nic.mac1609_4 	totalBusyTime 	1.274097
scalar LocScenario.node[24].veinsmobility 	startTime 	180.1
scalar LocScenario.node[24].veinsmobility 	totalTime 	228
scalar LocScenario.node[24].veinsmobility 	stopTime 	408.2
scalar LocScenario.node[24].veinsmobility 	minSpeed 	10.450022245024
scalar LocScenario.node[24].veinsmobility 	maxSpeed 	10.499935159192
scalar LocScenario.node[24].veinsmobility 	totalDistance 	2394.6418278465
scalar LocScenario.node[24].veinsmobility 	totalCO2Emission 	393.28603616853
scalar LocScenario.node[29].appl 	generatedWSMs 	0
scalar LocScenario.node[29].appl 	receivedWSMs 	0
scalar LocScenario.node[29].appl 	generatedBSMs 	2040
scalar LocScenario.node[29].appl 	receivedBSMs 	9532
scalar LocScenario.node[29].appl 	generatedWSAs 	0
scalar LocScenario.node[29].appl 	receivedWSAs 	0
scalar LocScenario.node[29].appl 	rmseSUMGPS 	743396.7796073
scalar LocScenario.node[29].appl 	rmseSUMCP 	455645.46833988
scalar LocScenario.node[29].appl 	delaySum 	1.0666392663243
scalar LocScenario.node[29].nic.phy80211p 	busyTime 	0.0048594509803919
scalar LocScenario.node[29].nic.mac1609_4 	ReceivedUnicastPackets 	0
scalar LocScenario.node[29].nic.mac1609_4 	ReceivedBroadcasts 	9532
scalar LocScenario.node[29].nic.mac1609_4 	SentPackets 	2040
scalar LocScenario.node[29].nic.mac1609_4 	SNIRLostPackets 	0
scalar LocScenario.node[29].nic.mac1609_4 	RXTXLostPackets 	0
scalar LocScenario.node[29].nic.mac1609_4 	TotalLostPackets 	0
scalar LocScenario.node[29].nic.mac1609_4 	DroppedPacketsInMac 	0
scalar LocScenario.node[29].nic.mac1609_4 	TooLittleTime 	0
scalar LocScenario.node[29].nic.mac1609_4 	TimesIntoBackoff 	2040
scalar LocScenario.node[29].nic.mac1609_4 	SlotsBackoff 	3053
scalar LocScenario.node[29].nic.mac1609_4 	NumInternalContention 	0
scalar LocScenario.node[29].nic.mac1609_4 	totalBusyTime 	1.205528
scalar LocScenario.node[29].veinsmobility 	startTime 	210.1
scalar LocScenario.node[29].veinsmobility 	totalTime 	203.9
scalar LocScenario.node[29].veinsmobility 	stopTime 	414.1
scalar LocScenario.node[29].veinsmobility 	minSpeed 	10.450054868008
scalar LocScenario.node[29].veinsmobility 	maxSpeed 	10.499934393191
scalar LocScenario.node[29].veinsmobility 	totalDistance 	2133.903833184
scalar LocScenario.node[29].veinsmobility 	totalCO2Emission 	351.61957203701
scalar LocScenario.node[26].appl 	generatedWSMs 	0
scalar LocScenario.node[26].appl 	receivedWSMs 	0
scalar LocScenario.node[26].appl 	generatedBSMs 	2281
scalar LocScenario.node[26].appl 	receivedBSMs 	10038
scalar LocScenario.node[26].appl 	generatedWSAs 	0
scalar LocScenario.node[26].appl 	receivedWSAs 	0
scalar LocScenario.node[26].appl 	rmseSUMGPS 	871601.33326382
scalar LocScenario.node[26].appl 	rmseSUMCP 	494768.70884782
scalar LocScenario.node[26].appl 	delaySum 	1.1243541630847
scalar LocScenario.node[26].nic.phy80211p 	busyTime 	0.0045767295046032
scalar LocScenario.node[26].nic.mac1609_4 	ReceivedUnicastPackets 	0
scalar LocScenario.node[26].nic.mac1609_4 	ReceivedBroadcasts 	10038
scalar LocScenario.node[26].nic.mac1609_4 	SentPackets 	2281
scalar LocScenario.node[26].nic.mac1609_4 	SNIRLostPackets 	0
scalar LocScenario.node[26].nic.mac1609_4 	RXTXLostPackets 	0
scalar LocScenario.node[26].nic.mac1609_4 	TotalLostPackets 	0
scalar LocScenario.node[26].nic.mac1609_4 	DroppedPacketsInMac 	0
scalar LocScenario.node[26].nic.mac1609_4 	TooLittleTime 	0
scalar LocScenario.node[26].nic.mac1609_4 	TimesIntoBackoff 	2281
scalar LocScenario.node[26].nic.mac1609_4 	SlotsBackoff 	3325
scalar LocScenario.node[26].nic.mac1609_4 	NumInternalContention 	0
scalar LocScenario.node[26].nic.mac1609_4 	totalBusyTime 	1.283457
scalar LocScenario.node[26].veinsmobility 	startTime 	195.1
scalar LocScenario.node[26].veinsmobility 	totalTime 	228
scalar LocScenario.node[26].veinsmobility 	stopTime 	423.2
scalar LocScenario.node[26].veinsmobility 	minSpeed 	10.450007218646
scalar LocScenario.node[26].veinsmobility 	maxSpeed 	10.499959640473
scalar LocScenario.node[26].veinsmobility 	totalDistance 	2388.6622067907
scalar LocScenario.node[26].veinsmobility 	totalCO2Emission 	394.11535692824
scalar LocScenario.node[31].appl 	generatedWSMs 	0
scalar LocScenario.node[31].appl 	receivedWSMs 	0
scalar LocScenario.node[31].appl 	generatedBSMs 	2040
scalar LocScenario.node[31].appl 	receivedBSMs 	9552
scalar LocScenario.node[31].appl 	generatedWSAs 	0
scalar LocScenario.node[31].appl 	receivedWSAs 	0
scalar LocScenario.node[31].appl 	rmseSUMGPS 	672716.58402233
scalar LocScenario.node[31].appl 	rmseSUMCP 	1158516.830989
scalar LocScenario.node[31].appl 	delaySum 	1.0700250280325
scalar LocScenario.node[31].nic.phy80211p 	busyTime 	0.0048696470588233
scalar LocScenario.node[31].nic.mac1609_4 	ReceivedUnicastPackets 	0
scalar LocScenario.node[31].nic.mac1609_4 	ReceivedBroadcasts 	9552
scalar LocScenario.node[31].nic.mac1609_4 	SentPackets 	2040
scalar LocScenario.node[31].nic.mac1609_4 	SNIRLostPackets 	0
scalar LocScenario.node[31].nic.mac1609_4 	RXTXLostPackets 	0
scalar LocScenario.node[31].nic.mac1609_4 	TotalLostPackets 	0
scalar LocScenario.node[31].nic.mac1609_4 	DroppedPacketsInMac 	0
scalar LocScenario.node[31].nic.mac1609_4 	TooLittleTime 	0
scalar LocScenario.node[31].nic.mac1609_4 	TimesIntoBackoff 	2040
scalar LocScenario.node[31].nic.mac1609_4 	SlotsBackoff 	3129
scalar LocScenario.node[31].nic.mac1609_4 	NumInternalContention 	0
scalar LocScenario.node[31].nic.mac1609_4 	totalBusyTime 	1.207608
scalar LocScenario.node[31].veinsmobility 	startTime 	225.1
scalar LocScenario.node[31].veinsmobility 	totalTime 	203.9
scalar LocScenario.node[31].veinsmobility 	stopTime 	429.1
scalar LocScenario.node[31].veinsmobility 	minSpeed 	10.450000031386
scalar LocScenario.node[31].veinsmobility 	maxSpeed 	10.499972749164
scalar LocScenario.node[31].veinsmobility 	totalDistance 	2133.9104567061
scalar LocScenario.node[31].veinsmobility 	totalCO2Emission 	351.33216301724
scalar LocScenario.node[28].appl 	generatedWSMs 	0
scalar LocScenario.node[28].appl 	receivedWSMs 	0
scalar LocScenario.node[28].appl 	generatedBSMs 	2281
scalar LocScenario.node[28].appl 	receivedBSMs 	10041
scalar LocScenario.node[28].appl 	generatedWSAs 	0
scalar LocScenario.node[28].appl 	receivedWSAs 	0
scalar LocScenario.node[28].appl 	rmseSUMGPS 	57283.20012218
scalar LocScenario.node[28].appl 	rmseSUMCP 	453811.5598464
scalar LocScenario.node[28].appl 	delaySum 	49.616750959155
scalar LocScenario.node[28].nic.phy80211p 	busyTime 	0.0045780973257343
scalar LocScenario.node[28].nic.mac1609_4 	ReceivedUnicastPackets 	0
scalar LocScenario.node[28].nic.mac1609_4 	ReceivedBroadcasts 	10041
scalar LocScenario.node[28].nic.mac1609_4 	SentPackets 	2281
scalar LocScenario.node[28].nic.mac1609_4 	SNIRLostPackets 	0
scalar LocScenario.node[28].nic.mac1609_4 	RXTXLostPackets 	0
scalar LocScenario.node[28].nic.mac1609_4 	TotalLostPackets 	0
scalar LocScenario.node[28].nic.mac1609_4 	DroppedPacketsInMac 	0
scalar LocScenario.node[28].nic.mac1609_4 	TooLittleTime 	0
scalar LocScenario.node[28].nic.mac1609_4 	TimesIntoBackoff 	2281
scalar LocScenario.node[28].nic.mac1609_4 	SlotsBackoff 	3475
scalar LocScenario.node[28].nic.mac1609_4 	NumInternalContention 	0
scalar LocScenario.node[28].nic.mac1609_4 	totalBusyTime 	1.283769
scalar LocScenario.node[28].veinsmobility 	startTime 	210.1
scalar LocScenario.node[28].veinsmobility 	totalTime 	228
scalar LocScenario.node[28].veinsmobility 	stopTime 	438.2
scalar LocScenario.node[28].veinsmobility 	minSpeed 	10.450002985413
scalar LocScenario.node[28].veinsmobility 	maxSpeed 	10.49999878956
scalar LocScenario.node[28].veinsmobility 	totalDistance 	2392.3805821088
scalar LocScenario.node[28].veinsmobility 	totalCO2Emission 	393.47320808507
scalar LocScenario.node[33].appl 	generatedWSMs 	0
scalar LocScenario.node[33].appl 	receivedWSMs 	0
scalar LocScenario.node[33].appl 	generatedBSMs 	2040
scalar LocScenario.node[33].appl 	receivedBSMs 	9555
scalar LocScenario.node[33].appl 	generatedWSAs 	0
scalar LocScenario.node[33].appl 	receivedWSAs 	0
scalar LocScenario.node[33].appl 	rmseSUMGPS 	791591.60437935
scalar LocScenario.node[33].appl 	rmseSUMCP 	637727.83831542
scalar LocScenario.node[33].appl 	delaySum 	9.1724353360224e+170
scalar LocScenario.node[33].nic.phy80211p 	busyTime 	0.004871176470588
scalar LocScenario.node[33].nic.mac1609_4 	ReceivedUnicastPackets 	0
scalar LocScenario.node[33].nic.mac1609_4 	ReceivedBroadcasts 	9555
scalar LocScenario.node[33].nic.mac1609_4 	SentPackets 	2040
scalar LocScenario.node[33].nic.mac1609_4 	SNIRLostPackets 	0
scalar LocScenario.node[33].nic.mac1609_4 	RXTXLostPackets 	0
scalar LocScenario.node[33].nic.mac1609_4 	TotalLostPackets 	0
scalar LocScenario.node[33].nic.mac1609_4 	DroppedPacketsInMac 	0
scalar LocScenario.node[33].nic.mac1609_4 	TooLittleTime 	0
scalar LocScenario.node[33].nic.mac1609_4 	TimesIntoBackoff 	2040
scalar LocScenario.node[33].nic.mac1609_4 	SlotsBackoff 	3140
scalar LocScenario.node[33].nic.mac1609_4 	NumInternalContention 	0
scalar LocScenario.node[33].nic.mac1609_4 	totalBusyTime 	1.20792
scalar LocScenario.node[33].veinsmobility 	startTime 	240.1
scalar LocScenario.node[33].veinsmobility 	totalTime 	203.9
scalar LocScenario.node[33].veinsmobility 	stopTime 	444.1
scalar LocScenario.node[33].veinsmobility 	minSpeed 	10.450008092797
scalar LocScenario.node[33].veinsmobility 	maxSpeed 	10.499989995291
scalar LocScenario.node[33].veinsmobility 	totalDistance 	2133.9061912297
scalar LocScenario.node[33].veinsmobility 	totalCO2Emission 	351.74995004182
scalar LocScenario.node[30].appl 	generatedWSMs 	0
scalar LocScenario.node[30].appl 	receivedWSMs 	0
scalar LocScenario.node[30].appl 	generatedBSMs 	2281
scalar LocScenario.node[30].appl 	receivedBSMs 	10038
scalar LocScenario.node[30].appl 	generatedWSAs 	0
scalar LocScenario.node[30].appl 	receivedWSAs 	0
scalar LocScenario.node[30].appl 	rmseSUMGPS 	783292.75849398
scalar LocScenario.node[30].appl 	rmseSUMCP 	493997.27194717
scalar LocScenario.node[30].appl 	delaySum 	1.1233183223048
scalar LocScenario.node[30].nic.phy80211p 	busyTime 	0.0045767295046032
scalar LocScenario.node[30].nic.mac1609_4 	ReceivedUnicastPackets 	0
scalar LocScenario.node[30].nic.mac1609_4 	ReceivedBroadcasts 	10038
scalar LocScenario.node[30].nic.mac1609_4 	SentPackets 	2281
scalar LocScenario.node[30].nic.mac1609_4 	SNIRLostPackets 	0
scalar LocScenario.node[30].nic.mac1609_4 	RXTXLostPackets 	0
scalar LocScenario.node[30].nic.mac1609_4 	TotalLostPackets 	0
scalar LocScenario.node[30].nic.mac1609_4 	DroppedPacketsInMac 	0
scalar LocScenario.node[30].nic.mac1609_4 	TooLittleTime 	0
scalar LocScenario.node[30].nic.mac1609_4 	TimesIntoBackoff 	2281
scalar LocScenario.node[30].nic.mac1609_4 	SlotsBackoff 	3403
scalar LocScenario.node[30].nic.mac1609_4 	NumInternalContention 	0
scalar LocScenario.node[30].nic.mac1609_4 	totalBusyTime 	1.283457
scalar LocScenario.node[30].veinsmobility 	startTime 	225.1
scalar LocScenario.node[30].veinsmobility 	totalTime 	228
scalar LocScenario.node[30].veinsmobility 	stopTime 	453.2
scalar LocScenario.node[30].veinsmobility 	minSpeed 	10.450040714268
scalar LocScenario.node[30].veinsmobility 	maxSpeed 	10.499965547409
scalar LocScenario.node[30].veinsmobility 	totalDistance 	2388.8150967719
scalar LocScenario.node[30].veinsmobility 	totalCO2Emission 	392.93889987775
scalar LocScenario.node[35].appl 	generatedWSMs 	0
scalar LocScenario.node[35].appl 	receivedWSMs 	0
scalar LocScenario.node[35].appl 	generatedBSMs 	2040
scalar LocScenario.node[35].appl 	receivedBSMs 	9554
scalar LocScenario.node[35].appl 	generatedWSAs 	0
scalar LocScenario.node[35].appl 	receivedWSAs 	0
scalar LocScenario.node[35].appl 	rmseSUMGPS 	771495.0652435
scalar LocScenario.node[35].appl 	rmseSUMCP 	1541764.3629414
scalar LocScenario.node[35].appl 	delaySum 	1.0706228285586
scalar LocScenario.node[35].nic.phy80211p 	busyTime 	0.0048706666666664
scalar LocScenario.node[35].nic.mac1609_4 	ReceivedUnicastPackets 	0
scalar LocScenario.node[35].nic.mac1609_4 	ReceivedBroadcasts 	9554
scalar LocScenario.node[35].nic.mac1609_4 	SentPackets 	2040
scalar LocScenario.node[35].nic.mac1609_4 	SNIRLostPackets 	0
scalar LocScenario.node[35].nic.mac1609_4 	RXTXLostPackets 	0
scalar LocScenario.node[35].nic.mac1609_4 	TotalLostPackets 	0
scalar LocScenario.node[35].nic.mac1609_4 	DroppedPacketsInMac 	0
scalar LocScenario.node[35].nic.mac1609_4 	TooLittleTime 	0
scalar LocScenario.node[35].nic.mac1609_4 	TimesIntoBackoff 	2040
scalar LocScenario.node[35].nic.mac1609_4 	SlotsBackoff 	3069
scalar LocScenario.node[35].nic.mac1609_4 	NumInternalContention 	0
scalar LocScenario.node[35].nic.mac1609_4 	totalBusyTime 	1.207816
scalar LocScenario.node[35].veinsmobility 	startTime 	255.1
scalar LocScenario.node[35].veinsmobility 	totalTime 	203.9
scalar LocScenario.node[35].veinsmobility 	stopTime 	459.1
scalar LocScenario.node[35].veinsmobility 	minSpeed 	10.450008831744
scalar LocScenario.node[35].veinsmobility 	maxSpeed 	10.499957085319
scalar LocScenario.node[35].veinsmobility 	totalDistance 	2133.8010737237
scalar LocScenario.node[35].veinsmobility 	totalCO2Emission 	351.86687309453
scalar LocScenario.node[32].appl 	generatedWSMs 	0
scalar LocScenario.node[32].appl 	receivedWSMs 	0
scalar LocScenario.node[32].appl 	generatedBSMs 	2281
scalar LocScenario.node[32].appl 	receivedBSMs 	10040
scalar LocScenario.node[32].appl 	generatedWSAs 	0
scalar LocScenario.node[32].appl 	receivedWSAs 	0
scalar LocScenario.node[32].appl 	rmseSUMGPS 	649441.38445018
scalar LocScenario.node[32].appl 	rmseSUMCP 	484546.88430507
scalar LocScenario.node[32].appl 	delaySum 	1.1234904840099
scalar LocScenario.node[32].nic.phy80211p 	busyTime 	0.0045776413853573
scalar LocScenario.node[32].nic.mac1609_4 	ReceivedUnicastPackets 	0
scalar LocScenario.node[32].nic.mac1609_4 	ReceivedBroadcasts 	10040
scalar LocScenario.node[32].nic.mac1609_4 	SentPackets 	2281
scalar LocScenario.node[32].nic.mac1609_4 	SNIRLostPackets 	0
scalar LocScenario.node[32].nic.mac1609_4 	RXTXLostPackets 	0
scalar LocScenario.node[32].nic.mac1609_4 	TotalLostPackets 	0
scalar LocScenario.node[32].nic.mac1609_4 	DroppedPacketsInMac 	0
scalar LocScenario.node[32].nic.mac1609_4 	TooLittleTime 	0
scalar LocScenario.node[32].nic.mac1609_4 	TimesIntoBackoff 	2281
scalar LocScenario.node[32].nic.mac1609_4 	SlotsBackoff 	3399
scalar LocScenario.node[32].nic.mac1609_4 	NumInternalContention 	0
scalar LocScenario.node[32].nic.mac1609_4 	totalBusyTime 	1.283665
scalar LocScenario.node[32].veinsmobility 	startTime 	240.1
scalar LocScenario.node[32].veinsmobility 	totalTime 	228
scalar LocScenario.node[32].veinsmobility 	stopTime 	468.2
scalar LocScenario.node[32].veinsmobility 	minSpeed 	10.450006720342
scalar LocScenario.node[32].veinsmobility 	maxSpeed 	10.499971550412
scalar LocScenario.node[32].veinsmobility 	totalDistance 	2392.3372725208
scalar LocScenario.node[32].veinsmobility 	totalCO2Emission 	394.29096503326
scalar LocScenario.node[37].appl 	generatedWSMs 	0
scalar LocScenario.node[37].appl 	receivedWSMs 	0
scalar LocScenario.node[37].appl 	generatedBSMs 	2040
scalar LocScenario.node[37].appl 	receivedBSMs 	9555
scalar LocScenario.node[37].appl 	generatedWSAs 	0
scalar LocScenario.node[37].appl 	receivedWSAs 	0
scalar LocScenario.node[37].appl 	rmseSUMGPS 	767887.82508388
scalar LocScenario.node[37].appl 	rmseSUMCP 	709205.90767018
scalar LocScenario.node[37].appl 	delaySum 	1.0749830641865
scalar LocScenario.node[37].nic.phy80211p 	busyTime 	0.004871176470588
scalar LocScenario.node[37].nic.mac1609_4 	ReceivedUnicastPackets 	0
scalar LocScenario.node[37].nic.mac1609_4 	ReceivedBroadcasts 	9555
scalar LocScenario.node[37].nic.mac1609_4 	SentPackets 	2040
scalar LocScenario.node[37].nic.mac1609_4 	SNIRLostPackets 	0
scalar LocScenario.node[37].nic.mac1609_4 	RXTXLostPackets 	0
scalar LocScenario.node[37].nic.mac1609_4 	TotalLostPackets 	0
scalar LocScenario.node[37].nic.mac1609_4 	DroppedPacketsInMac 	0
scalar LocScenario.node[37].nic.mac1609_4 	TooLittleTime 	0
scalar LocScenario.node[37].nic.mac1609_4 	TimesIntoBackoff 	2040
scalar LocScenario.node[37].nic.mac1609_4 	SlotsBackoff 	3141
scalar LocScenario.node[37].nic.mac1609_4 	NumInternalContention 	0
scalar LocScenario.node[37].nic.mac1609_4 	totalBusyTime 	1.20792
scalar LocScenario.node[37].veinsmobility 	startTime 	270.1
scalar LocScenario.node[37].veinsmobility 	totalTime 	203.9
scalar LocScenario.node[37].veinsmobility 	stopTime 	474.1
scalar LocScenario.node[37].veinsmobility 	minSpeed 	10.450017207791
scalar LocScenario.node[37].veinsmobility 	maxSpeed 	10.499983942672
scalar LocScenario.node[37].veinsmobility 	totalDistance 	2133.8221673511
scalar LocScenario.node[37].veinsmobility 	totalCO2Emission 	352.19067975235
scalar LocScenario.node[34].appl 	generatedWSMs 	0
scalar LocScenario.node[34].appl 	receivedWSMs 	0
scalar LocScenario.node[34].appl 	generatedBSMs 	2281
scalar LocScenario.node[34].appl 	receivedBSMs 	10040
scalar LocScenario.node[34].appl 	generatedWSAs 	0
scalar LocScenario.node[34].appl 	receivedWSAs 	0
scalar LocScenario.node[34].appl 	rmseSUMGPS 	439720.01246404
scalar LocScenario.node[34].appl 	rmseSUMCP 	481298.13362719
scalar LocScenario.node[34].appl 	delaySum 	1.1245991430823
scalar LocScenario.node[34].nic.phy80211p 	busyTime 	0.0045776413853573
scalar LocScenario.node[34].nic.mac1609_4 	ReceivedUnicastPackets 	0
scalar LocScenario.node[34].nic.mac1609_4 	ReceivedBroadcasts 	10040
scalar LocScenario.node[34].nic.mac1609_4 	SentPackets 	2281
scalar LocScenario.node[34].nic.mac1609_4 	SNIRLostPackets 	0
scalar LocScenario.node[34].nic.mac1609_4 	RXTXLostPackets 	0
scalar LocScenario.node[34].nic.mac1609_4 	TotalLostPackets 	0
scalar LocScenario.node[34].nic.mac1609_4 	DroppedPacketsInMac 	0
scalar LocScenario.node[34].nic.mac1609_4 	TooLittleTime 	0
scalar LocScenario.node[34].nic.mac1609_4 	TimesIntoBackoff 	2281
scalar LocScenario.node[34].nic.mac1609_4 	SlotsBackoff 	3430
scalar LocScenario.node[34].nic.mac1609_4 	NumInternalContention 	0
scalar LocScenario.node[34].nic.mac1609_4 	totalBusyTime 	1.283665
scalar LocScenario.node[34].veinsmobility 	startTime 	255.1
scalar LocScenario.node[34].veinsmobility 	totalTime 	228
scalar LocScenario.node[34].veinsmobility 	stopTime 	483.2
scalar LocScenario.node[34].veinsmobility 	minSpeed 	10.450021977141
scalar LocScenario.node[34].veinsmobility 	maxSpeed 	10.499952169717
scalar LocScenario.node[34].veinsmobility 	totalDistance 	2394.7669104835
scalar LocScenario.node[34].veinsmobility 	totalCO2Emission 	393.1110243486
scalar LocScenario.node[39].appl 	generatedWSMs 	0
scalar LocScenario.node[39].appl 	receivedWSMs 	0
scalar LocScenario.node[39].appl 	generatedBSMs 	2040
scalar LocScenario.node[39].appl 	receivedBSMs 	9553
scalar LocScenario.node[39].appl 	generatedWSAs 	0
scalar LocScenario.node[39].appl 	receivedWSAs 	0
scalar LocScenario.node[39].appl 	rmseSUMGPS 	908418.95313896
scalar LocScenario.node[39].appl 	rmseSUMCP 	445566.87437641
scalar LocScenario.node[39].appl 	delaySum 	1.0687696407587
scalar LocScenario.node[39].nic.phy80211p 	busyTime 	0.0048701568627448
scalar LocScenario.node[39].nic.mac1609_4 	ReceivedUnicastPackets 	0
scalar LocScenario.node[39].nic.mac1609_4 	ReceivedBroadcasts 	9553
scalar LocScenario.node[39].nic.mac1609_4 	SentPackets 	2040
scalar LocScenario.node[39].nic.mac1609_4 	SNIRLostPackets 	0
scalar LocScenario.node[39].nic.mac1609_4 	RXTXLostPackets 	0
scalar LocScenario.node[39].nic.mac1609_4 	TotalLostPackets 	0
scalar LocScenario.node[39].nic.mac1609_4 	DroppedPacketsInMac 	0
scalar LocScenario.node[39].nic.mac1609_4 	TooLittleTime 	0
scalar LocScenario.node[39].nic.mac1609_4 	TimesIntoBackoff 	2040
scalar LocScenario.node[39].nic.mac1609_4 	SlotsBackoff 	3140
scalar LocScenario.node[39].nic.mac1609_4 	NumInternalContention 	0
scalar LocScenario.node[39].nic.mac1609_4 	totalBusyTime 	1.207712
scalar LocScenario.node[39].veinsmobility 	startTime 	285.1
scalar LocScenario.node[39].veinsmobility 	totalTime 	203.9
scalar LocScenario.node[39].veinsmobility 	stopTime 	489.1
scalar LocScenario.node[39].veinsmobility 	minSpeed 	10.450002471358
scalar LocScenario.node[39].veinsmobility 	maxSpeed 	10.499997996842
scalar LocScenario.node[39].veinsmobility 	totalDistance 	2133.8102137909
scalar LocScenario.node[39].veinsmobility 	totalCO2Emission 	351.70517246213
scalar LocScenario.node[36].appl 	generatedWSMs 	0
scalar LocScenario.node[36].appl 	receivedWSMs 	0
scalar LocScenario.node[36].appl 	generatedBSMs 	2281
scalar LocScenario.node[36].appl 	receivedBSMs 	10038
scalar LocScenario.node[36].appl 	generatedWSAs 	0
scalar LocScenario.node[36].appl 	receivedWSAs 	0
scalar LocScenario.node[36].appl 	rmseSUMGPS 	20957.933208183
scalar LocScenario.node[36].appl 	rmseSUMCP 	475783.86366731
scalar LocScenario.node[36].appl 	delaySum 	1.1267233086911
scalar LocScenario.node[36].nic.phy80211p 	busyTime 	0.0045771854449802
scalar LocScenario.node[36].nic.mac1609_4 	ReceivedUnicastPackets 	0
scalar LocScenario.node[36].nic.mac1609_4 	ReceivedBroadcasts 	10038
scalar LocScenario.node[36].nic.mac1609_4 	SentPackets 	2281
scalar LocScenario.node[36].nic.mac1609_4 	SNIRLostPackets 	1
scalar LocScenario.node[36].nic.mac1609_4 	RXTXLostPackets 	0
scalar LocScenario.node[36].nic.mac1609_4 	TotalLostPackets 	1
scalar LocScenario.node[36].nic.mac1609_4 	DroppedPacketsInMac 	0
scalar LocScenario.node[36].nic.mac1609_4 	TooLittleTime 	0
scalar LocScenario.node[36].nic.mac1609_4 	TimesIntoBackoff 	2281
scalar LocScenario.node[36].nic.mac1609_4 	SlotsBackoff 	3434
scalar LocScenario.node[36].nic.mac1609_4 	NumInternalContention 	0
scalar LocScenario.node[36].nic.mac1609_4 	totalBusyTime 	1.283561
scalar LocScenario.node[36].veinsmobility 	startTime 	270.1
scalar LocScenario.node[36].veinsmobility 	totalTime 	228
scalar LocScenario.node[36].veinsmobility 	stopTime 	498.2
scalar LocScenario.node[36].veinsmobility 	minSpeed 	10.450045181229
scalar LocScenario.node[36].veinsmobility 	maxSpeed 	10.499986967805
scalar LocScenario.node[36].veinsmobility 	totalDistance 	2392.3627232123
scalar LocScenario.node[36].veinsmobility 	totalCO2Emission 	392.62578312523
scalar LocScenario.node[41].appl 	generatedWSMs 	0
scalar LocScenario.node[41].appl 	receivedWSMs 	0
scalar LocScenario.node[41].appl 	generatedBSMs 	2040
scalar LocScenario.node[41].appl 	receivedBSMs 	9557
scalar LocScenario.node[41].appl 	generatedWSAs 	0
scalar LocScenario.node[41].appl 	receivedWSAs 	0
scalar LocScenario.node[41].appl 	rmseSUMGPS 	1045819.6218858
scalar LocScenario.node[41].appl 	rmseSUMCP 	1504353.1735985
scalar LocScenario.node[41].appl 	delaySum 	1.0699953836584
scalar LocScenario.node[41].nic.phy80211p 	busyTime 	0.0048721960784311
scalar LocScenario.node[41].nic.mac1609_4 	ReceivedUnicastPackets 	0
scalar LocScenario.node[41].nic.mac1609_4 	ReceivedBroadcasts 	9557
scalar LocScenario.node[41].nic.mac1609_4 	SentPackets 	2040
scalar LocScenario.node[41].nic.mac1609_4 	SNIRLostPackets 	0
scalar LocScenario.node[41].nic.mac1609_4 	RXTXLostPackets 	0
scalar LocScenario.node[41].nic.mac1609_4 	TotalLostPackets 	0
scalar LocScenario.node[41].nic.mac1609_4 	DroppedPacketsInMac 	0
scalar LocScenario.node[41].nic.mac1609_4 	TooLittleTime 	0
scalar LocScenario.node[41].nic.mac1609_4 	TimesIntoBackoff 	2040
scalar LocScenario.node[41].nic.mac1609_4 	SlotsBackoff 	3114
scalar LocScenario.node[41].nic.mac1609_4 	NumInternalContention 	0
scalar LocScenario.node[41].nic.mac1609_4 	totalBusyTime 	1.208128
scalar LocScenario.node[41].veinsmobility 	startTime 	300.1
scalar LocScenario.node[41].veinsmobility 	totalTime 	203.9
scalar LocScenario.node[41].veinsmobility 	stopTime 	504.1
scalar LocScenario.node[41].veinsmobility 	minSpeed 	10.450110683881
scalar LocScenario.node[41].veinsmobility 	maxSpeed 	10.499989606568
scalar LocScenario.node[41].veinsmobility 	totalDistance 	2138.6875433852
scalar LocScenario.node[41].veinsmobility 	totalCO2Emission 	351.9078239434
scalar LocScenario.node[38].appl 	generatedWSMs 	0
scalar LocScenario.node[38].appl 	receivedWSMs 	0
scalar LocScenario.node[38].appl 	generatedBSMs 	2281
scalar LocScenario.node[38].appl 	receivedBSMs 	10005
scalar LocScenario.node[38].appl 	generatedWSAs 	0
scalar LocScenario.node[38].appl 	receivedWSAs 	0
scalar LocScenario.node[38].appl 	rmseSUMGPS 	854865.13401332
scalar LocScenario.node[38].appl 	rmseSUMCP 	509246.64197583
scalar LocScenario.node[38].appl 	delaySum 	1.1250443831612
scalar LocScenario.node[38].nic.phy80211p 	busyTime 	0.0045767295046032
scalar LocScenario.node[38].nic.mac1609_4 	ReceivedUnicastPackets 	0
scalar LocScenario.node[38].nic.mac1609_4 	ReceivedBroadcasts 	10005
scalar LocScenario.node[38].nic.mac1609_4 	SentPackets 	2281
scalar LocScenario.node[38].nic.mac1609_4 	SNIRLostPackets 	33
scalar LocScenario.node[38].nic.mac1609_4 	RXTXLostPackets 	0
scalar LocScenario.node[38].nic.mac1609_4 	TotalLostPackets 	33
scalar LocScenario.node[38].nic.mac1609_4 	DroppedPacketsInMac 	0
scalar LocScenario.node[38].nic.mac1609_4 	TooLittleTime 	0
scalar LocScenario.node[38].nic.mac1609_4 	TimesIntoBackoff 	2281
scalar LocScenario.node[38].nic.mac1609_4 	SlotsBackoff 	3449
scalar LocScenario.node[38].nic.mac1609_4 	NumInternalContention 	0
scalar LocScenario.node[38].nic.mac1609_4 	totalBusyTime 	1.283457
scalar LocScenario.node[38].veinsmobility 	startTime 	285.1
scalar LocScenario.node[38].veinsmobility 	totalTime 	228
scalar LocScenario.node[38].veinsmobility 	stopTime 	513.2
scalar LocScenario.node[38].veinsmobility 	minSpeed 	10.450008310389
scalar LocScenario.node[38].veinsmobility 	maxSpeed 	10.499980091199
scalar LocScenario.node[38].veinsmobility 	totalDistance 	2388.861734719
scalar LocScenario.node[38].veinsmobility 	totalCO2Emission 	393.31240750879
scalar LocScenario.node[43].appl 	generatedWSMs 	0
scalar LocScenario.node[43].appl 	receivedWSMs 	0
scalar LocScenario.node[43].appl 	generatedBSMs 	2040
scalar LocScenario.node[43].appl 	receivedBSMs 	9557
scalar LocScenario.node[43].appl 	generatedWSAs 	0
scalar LocScenario.node[43].appl 	receivedWSAs 	0
scalar LocScenario.node[43].appl 	rmseSUMGPS 	327209.10709448
scalar LocScenario.node[43].appl 	rmseSUMCP 	580040.18706512
scalar LocScenario.node[43].appl 	delaySum 	4.2942228640802e+18
scalar LocScenario.node[43].nic.phy80211p 	busyTime 	0.0048721960784311
scalar LocScenario.node[43].nic.mac1609_4 	ReceivedUnicastPackets 	0
scalar LocScenario.node[43].nic.mac1609_4 	ReceivedBroadcasts 	9557
scalar LocScenario.node[43].nic.mac1609_4 	SentPackets 	2040
scalar LocScenario.node[43].nic.mac1609_4 	SNIRLostPackets 	0
scalar LocScenario.node[43].nic.mac1609_4 	RXTXLostPackets 	0
scalar LocScenario.node[43].nic.mac1609_4 	TotalLostPackets 	0
scalar LocScenario.node[43].nic.mac1609_4 	DroppedPacketsInMac 	0
scalar LocScenario.node[43].nic.mac1609_4 	TooLittleTime 	0
scalar LocScenario.node[43].nic.mac1609_4 	TimesIntoBackoff 	2040
scalar LocScenario.node[43].nic.mac1609_4 	SlotsBackoff 	3070
scalar LocScenario.node[43].nic.mac1609_4 	NumInternalContention 	0
scalar LocScenario.node[43].nic.mac1609_4 	totalBusyTime 	1.208128
scalar LocScenario.node[43].veinsmobility 	startTime 	315.1
scalar LocScenario.node[43].veinsmobility 	totalTime 	203.9
scalar LocScenario.node[43].veinsmobility 	stopTime 	519.1
scalar LocScenario.node[43].veinsmobility 	minSpeed 	10.45001144011
scalar LocScenario.node[43].veinsmobility 	maxSpeed 	10.499988983327
scalar LocScenario.node[43].veinsmobility 	totalDistance 	2138.759556902
scalar LocScenario.node[43].veinsmobility 	totalCO2Emission 	351.49746962381
scalar LocScenario.node[40].appl 	generatedWSMs 	0
scalar LocScenario.node[40].appl 	receivedWSMs 	0
scalar LocScenario.node[40].appl 	generatedBSMs 	2281
scalar LocScenario.node[40].appl 	receivedBSMs 	9859
scalar LocScenario.node[40].appl 	generatedWSAs 	0
scalar LocScenario.node[40].appl 	receivedWSAs 	0
scalar LocScenario.node[40].appl 	rmseSUMGPS 	53484.140022903
scalar LocScenario.node[40].appl 	rmseSUMCP 	562357.28449177
scalar LocScenario.node[40].appl 	delaySum 	4.7802419494712e+183
scalar LocScenario.node[40].nic.phy80211p 	busyTime 	0.0045780973257343
scalar LocScenario.node[40].nic.mac1609_4 	ReceivedUnicastPackets 	0
scalar LocScenario.node[40].nic.mac1609_4 	ReceivedBroadcasts 	9859
scalar LocScenario.node[40].nic.mac1609_4 	SentPackets 	2281
scalar LocScenario.node[40].nic.mac1609_4 	SNIRLostPackets 	182
scalar LocScenario.node[40].nic.mac1609_4 	RXTXLostPackets 	0
scalar LocScenario.node[40].nic.mac1609_4 	TotalLostPackets 	182
scalar LocScenario.node[40].nic.mac1609_4 	DroppedPacketsInMac 	0
scalar LocScenario.node[40].nic.mac1609_4 	TooLittleTime 	0
scalar LocScenario.node[40].nic.mac1609_4 	TimesIntoBackoff 	2281
scalar LocScenario.node[40].nic.mac1609_4 	SlotsBackoff 	3481
[...]
scalar LocScenario.node[991].veinsmobility 	totalTime 	203.9
scalar LocScenario.node[991].veinsmobility 	stopTime 	7629.1
scalar LocScenario.node[991].veinsmobility 	minSpeed 	10.450005505362
scalar LocScenario.node[991].veinsmobility 	maxSpeed 	10.499977063865
scalar LocScenario.node[991].veinsmobility 	totalDistance 	2133.769131869
scalar LocScenario.node[991].veinsmobility 	totalCO2Emission 	352.13358475228
scalar LocScenario.node[988].appl 	generatedWSMs 	0
scalar LocScenario.node[988].appl 	receivedWSMs 	0
scalar LocScenario.node[988].appl 	generatedBSMs 	2281
scalar LocScenario.node[988].appl 	receivedBSMs 	8300
scalar LocScenario.node[988].appl 	generatedWSAs 	0
scalar LocScenario.node[988].appl 	receivedWSAs 	0
scalar LocScenario.node[988].appl 	rmseSUMGPS 	86769.458794915
scalar LocScenario.node[988].appl 	rmseSUMCP 	1400839.6796575
scalar LocScenario.node[988].appl 	delaySum 	3.1762677268853
scalar LocScenario.node[988].nic.phy80211p 	busyTime 	0.003784305129329
scalar LocScenario.node[988].nic.mac1609_4 	ReceivedUnicastPackets 	0
scalar LocScenario.node[988].nic.mac1609_4 	ReceivedBroadcasts 	8300
scalar LocScenario.node[988].nic.mac1609_4 	SentPackets 	2281
scalar LocScenario.node[988].nic.mac1609_4 	SNIRLostPackets 	0
scalar LocScenario.node[988].nic.mac1609_4 	RXTXLostPackets 	0
scalar LocScenario.node[988].nic.mac1609_4 	TotalLostPackets 	0
scalar LocScenario.node[988].nic.mac1609_4 	DroppedPacketsInMac 	0
scalar LocScenario.node[988].nic.mac1609_4 	TooLittleTime 	0
scalar LocScenario.node[988].nic.mac1609_4 	TimesIntoBackoff 	2281
scalar LocScenario.node[988].nic.mac1609_4 	SlotsBackoff 	3350
scalar LocScenario.node[988].nic.mac1609_4 	NumInternalContention 	0
scalar LocScenario.node[988].nic.mac1609_4 	totalBusyTime 	1.102705
scalar LocScenario.node[988].veinsmobility 	startTime 	7410.1
scalar LocScenario.node[988].veinsmobility 	totalTime 	228
scalar LocScenario.node[988].veinsmobility 	stopTime 	7638.2
scalar LocScenario.node[988].veinsmobility 	minSpeed 	10.450044697919
scalar LocScenario.node[988].veinsmobility 	maxSpeed 	10.499959544523
scalar LocScenario.node[988].veinsmobility 	totalDistance 	2394.7433466273
scalar LocScenario.node[988].veinsmobility 	totalCO2Emission 	393.21354282022
scalar LocScenario.node[993].appl 	generatedWSMs 	0
scalar LocScenario.node[993].appl 	receivedWSMs 	0
scalar LocScenario.node[993].appl 	generatedBSMs 	2040
scalar LocScenario.node[993].appl 	receivedBSMs 	7517
scalar LocScenario.node[993].appl 	generatedWSAs 	0
scalar LocScenario.node[993].appl 	receivedWSAs 	0
scalar LocScenario.node[993].appl 	rmseSUMGPS 	809650.56983265
scalar LocScenario.node[993].appl 	rmseSUMCP 	569183.10078574
scalar LocScenario.node[993].appl 	delaySum 	1.9718634211949
scalar LocScenario.node[993].nic.phy80211p 	busyTime 	0.0038321960784312
scalar LocScenario.node[993].nic.mac1609_4 	ReceivedUnicastPackets 	0
scalar LocScenario.node[993].nic.mac1609_4 	ReceivedBroadcasts 	7517
scalar LocScenario.node[993].nic.mac1609_4 	SentPackets 	2040
scalar LocScenario.node[993].nic.mac1609_4 	SNIRLostPackets 	0
scalar LocScenario.node[993].nic.mac1609_4 	RXTXLostPackets 	0
scalar LocScenario.node[993].nic.mac1609_4 	TotalLostPackets 	0
scalar LocScenario.node[993].nic.mac1609_4 	DroppedPacketsInMac 	0
scalar LocScenario.node[993].nic.mac1609_4 	TooLittleTime 	0
scalar LocScenario.node[993].nic.mac1609_4 	TimesIntoBackoff 	2040
scalar LocScenario.node[993].nic.mac1609_4 	SlotsBackoff 	3081
scalar LocScenario.node[993].nic.mac1609_4 	NumInternalContention 	0
scalar LocScenario.node[993].nic.mac1609_4 	totalBusyTime 	0.995968
scalar LocScenario.node[993].veinsmobility 	startTime 	7440.1
scalar LocScenario.node[993].veinsmobility 	totalTime 	203.9
scalar LocScenario.node[993].veinsmobility 	stopTime 	7644.1
scalar LocScenario.node[993].veinsmobility 	minSpeed 	10.450003361842
scalar LocScenario.node[993].veinsmobility 	maxSpeed 	10.499989807571
scalar LocScenario.node[993].veinsmobility 	totalDistance 	2133.8788841016
scalar LocScenario.node[993].veinsmobility 	totalCO2Emission 	351.43007077586
scalar LocScenario.node[990].appl 	generatedWSMs 	0
scalar LocScenario.node[990].appl 	receivedWSMs 	0
scalar LocScenario.node[990].appl 	generatedBSMs 	2281
scalar LocScenario.node[990].appl 	receivedBSMs 	8050
scalar LocScenario.node[990].appl 	generatedWSAs 	0
scalar LocScenario.node[990].appl 	receivedWSAs 	0
scalar LocScenario.node[990].appl 	rmseSUMGPS 	65676.230321561
scalar LocScenario.node[990].appl 	rmseSUMCP 	1510153.1709245
scalar LocScenario.node[990].appl 	delaySum 	4.2845406496499
scalar LocScenario.node[990].nic.phy80211p 	busyTime 	0.0036830863656289
scalar LocScenario.node[990].nic.mac1609_4 	ReceivedUnicastPackets 	0
scalar LocScenario.node[990].nic.mac1609_4 	ReceivedBroadcasts 	8050
scalar LocScenario.node[990].nic.mac1609_4 	SentPackets 	2281
scalar LocScenario.node[990].nic.mac1609_4 	SNIRLostPackets 	28
scalar LocScenario.node[990].nic.mac1609_4 	RXTXLostPackets 	0
scalar LocScenario.node[990].nic.mac1609_4 	TotalLostPackets 	28
scalar LocScenario.node[990].nic.mac1609_4 	DroppedPacketsInMac 	0
scalar LocScenario.node[990].nic.mac1609_4 	TooLittleTime 	0
scalar LocScenario.node[990].nic.mac1609_4 	TimesIntoBackoff 	2281
scalar LocScenario.node[990].nic.mac1609_4 	SlotsBackoff 	3330
scalar LocScenario.node[990].nic.mac1609_4 	NumInternalContention 	0
scalar LocScenario.node[990].nic.mac1609_4 	totalBusyTime 	1.079617
scalar LocScenario.node[990].veinsmobility 	startTime 	7425.1
scalar LocScenario.node[990].veinsmobility 	totalTime 	228
scalar LocScenario.node[990].veinsmobility 	stopTime 	7653.2
scalar LocScenario.node[990].veinsmobility 	minSpeed 	10.450042725494
scalar LocScenario.node[990].veinsmobility 	maxSpeed 	10.499908054189
scalar LocScenario.node[990].veinsmobility 	totalDistance 	2394.7206889696
scalar LocScenario.node[990].veinsmobility 	totalCO2Emission 	393.28665751883
scalar LocScenario.node[995].appl 	generatedWSMs 	0
scalar LocScenario.node[995].appl 	receivedWSMs 	0
scalar LocScenario.node[995].appl 	generatedBSMs 	2040
scalar LocScenario.node[995].appl 	receivedBSMs 	7294
scalar LocScenario.node[995].appl 	generatedWSAs 	0
scalar LocScenario.node[995].appl 	receivedWSAs 	0
scalar LocScenario.node[995].appl 	rmseSUMGPS 	755877.49917152
scalar LocScenario.node[995].appl 	rmseSUMCP 	1156312.1685383
scalar LocScenario.node[995].appl 	delaySum 	5.2474904905303
scalar LocScenario.node[995].nic.phy80211p 	busyTime 	0.0037185098039214
scalar LocScenario.node[995].nic.mac1609_4 	ReceivedUnicastPackets 	0
scalar LocScenario.node[995].nic.mac1609_4 	ReceivedBroadcasts 	7294
scalar LocScenario.node[995].nic.mac1609_4 	SentPackets 	2040
scalar LocScenario.node[995].nic.mac1609_4 	SNIRLostPackets 	0
scalar LocScenario.node[995].nic.mac1609_4 	RXTXLostPackets 	0
scalar LocScenario.node[995].nic.mac1609_4 	TotalLostPackets 	0
scalar LocScenario.node[995].nic.mac1609_4 	DroppedPacketsInMac 	0
scalar LocScenario.node[995].nic.mac1609_4 	TooLittleTime 	0
scalar LocScenario.node[995].nic.mac1609_4 	TimesIntoBackoff 	2040
scalar LocScenario.node[995].nic.mac1609_4 	SlotsBackoff 	2958
scalar LocScenario.node[995].nic.mac1609_4 	NumInternalContention 	0
scalar LocScenario.node[995].nic.mac1609_4 	totalBusyTime 	0.972776
scalar LocScenario.node[995].veinsmobility 	startTime 	7455.1
scalar LocScenario.node[995].veinsmobility 	totalTime 	203.9
scalar LocScenario.node[995].veinsmobility 	stopTime 	7659.1
scalar LocScenario.node[995].veinsmobility 	minSpeed 	10.450038924301
scalar LocScenario.node[995].veinsmobility 	maxSpeed 	10.499959343264
scalar LocScenario.node[995].veinsmobility 	totalDistance 	2133.7825089934
scalar LocScenario.node[995].veinsmobility 	totalCO2Emission 	352.32054753053
scalar LocScenario.node[992].appl 	generatedWSMs 	0
scalar LocScenario.node[992].appl 	receivedWSMs 	0
scalar LocScenario.node[992].appl 	generatedBSMs 	2281
scalar LocScenario.node[992].appl 	receivedBSMs 	7666
scalar LocScenario.node[992].appl 	generatedWSAs 	0
scalar LocScenario.node[992].appl 	receivedWSAs 	0
scalar LocScenario.node[992].appl 	rmseSUMGPS 	551782.87030532
scalar LocScenario.node[992].appl 	rmseSUMCP 	1547978.3278382
scalar LocScenario.node[992].appl 	delaySum 	1094.6330803789
scalar LocScenario.node[992].nic.phy80211p 	busyTime 	0.0035804997807977
scalar LocScenario.node[992].nic.mac1609_4 	ReceivedUnicastPackets 	0
scalar LocScenario.node[992].nic.mac1609_4 	ReceivedBroadcasts 	7666
scalar LocScenario.node[992].nic.mac1609_4 	SentPackets 	2281
scalar LocScenario.node[992].nic.mac1609_4 	SNIRLostPackets 	187
scalar LocScenario.node[992].nic.mac1609_4 	RXTXLostPackets 	0
scalar LocScenario.node[992].nic.mac1609_4 	TotalLostPackets 	187
scalar LocScenario.node[992].nic.mac1609_4 	DroppedPacketsInMac 	0
scalar LocScenario.node[992].nic.mac1609_4 	TooLittleTime 	0
scalar LocScenario.node[992].nic.mac1609_4 	TimesIntoBackoff 	2281
scalar LocScenario.node[992].nic.mac1609_4 	SlotsBackoff 	3461
scalar LocScenario.node[992].nic.mac1609_4 	NumInternalContention 	0
scalar LocScenario.node[992].nic.mac1609_4 	totalBusyTime 	1.048209
scalar LocScenario.node[992].veinsmobility 	startTime 	7440.1
scalar LocScenario.node[992].veinsmobility 	totalTime 	228
scalar LocScenario.node[992].veinsmobility 	stopTime 	7668.2
scalar LocScenario.node[992].veinsmobility 	minSpeed 	10.45001555332
scalar LocScenario.node[992].veinsmobility 	maxSpeed 	10.499986671004
scalar LocScenario.node[992].veinsmobility 	totalDistance 	2388.7773690532
scalar LocScenario.node[992].veinsmobility 	totalCO2Emission 	393.63822699944
scalar LocScenario.node[997].appl 	generatedWSMs 	0
scalar LocScenario.node[997].appl 	receivedWSMs 	0
scalar LocScenario.node[997].appl 	generatedBSMs 	2040
scalar LocScenario.node[997].appl 	receivedBSMs 	7074
scalar LocScenario.node[997].appl 	generatedWSAs 	0
scalar LocScenario.node[997].appl 	receivedWSAs 	0
scalar LocScenario.node[997].appl 	rmseSUMGPS 	803480.00632729
scalar LocScenario.node[997].appl 	rmseSUMCP 	1254878.118225
scalar LocScenario.node[997].appl 	delaySum 	0.79206063038055
scalar LocScenario.node[997].nic.phy80211p 	busyTime 	0.0036063529411763
scalar LocScenario.node[997].nic.mac1609_4 	ReceivedUnicastPackets 	0
scalar LocScenario.node[997].nic.mac1609_4 	ReceivedBroadcasts 	7074
scalar LocScenario.node[997].nic.mac1609_4 	SentPackets 	2040
scalar LocScenario.node[997].nic.mac1609_4 	SNIRLostPackets 	0
scalar LocScenario.node[997].nic.mac1609_4 	RXTXLostPackets 	0
scalar LocScenario.node[997].nic.mac1609_4 	TotalLostPackets 	0
scalar LocScenario.node[997].nic.mac1609_4 	DroppedPacketsInMac 	0
scalar LocScenario.node[997].nic.mac1609_4 	TooLittleTime 	0
scalar LocScenario.node[997].nic.mac1609_4 	TimesIntoBackoff 	2040
scalar LocScenario.node[997].nic.mac1609_4 	SlotsBackoff 	3115
scalar LocScenario.node[997].nic.mac1609_4 	NumInternalContention 	0
scalar LocScenario.node[997].nic.mac1609_4 	totalBusyTime 	0.949896
scalar LocScenario.node[997].veinsmobility 	startTime 	7470.1
scalar LocScenario.node[997].veinsmobility 	totalTime 	203.9
scalar LocScenario.node[997].veinsmobility 	stopTime 	7674.1
scalar LocScenario.node[997].veinsmobility 	minSpeed 	10.45002475651
scalar LocScenario.node[997].veinsmobility 	maxSpeed 	10.499963268114
scalar LocScenario.node[997].veinsmobility 	totalDistance 	2133.8837731272
scalar LocScenario.node[997].veinsmobility 	totalCO2Emission 	352.16944335823
scalar LocScenario.node[994].appl 	generatedWSMs 	0
scalar LocScenario.node[994].appl 	receivedWSMs 	0
scalar LocScenario.node[994].appl 	generatedBSMs 	2281
scalar LocScenario.node[994].appl 	receivedBSMs 	7633
scalar LocScenario.node[994].appl 	generatedWSAs 	0
scalar LocScenario.node[994].appl 	receivedWSAs 	0
scalar LocScenario.node[994].appl 	rmseSUMGPS 	51516.462357221
scalar LocScenario.node[994].appl 	rmseSUMCP 	1583323.2686418
scalar LocScenario.node[994].appl 	delaySum 	16.552627746705
scalar LocScenario.node[994].nic.phy80211p 	busyTime 	0.0034801928978516
scalar LocScenario.node[994].nic.mac1609_4 	ReceivedUnicastPackets 	0
scalar LocScenario.node[994].nic.mac1609_4 	ReceivedBroadcasts 	7633
scalar LocScenario.node[994].nic.mac1609_4 	SentPackets 	2281
scalar LocScenario.node[994].nic.mac1609_4 	SNIRLostPackets 	0
scalar LocScenario.node[994].nic.mac1609_4 	RXTXLostPackets 	0
scalar LocScenario.node[994].nic.mac1609_4 	TotalLostPackets 	0
scalar LocScenario.node[994].nic.mac1609_4 	DroppedPacketsInMac 	0
scalar LocScenario.node[994].nic.mac1609_4 	TooLittleTime 	0
scalar LocScenario.node[994].nic.mac1609_4 	TimesIntoBackoff 	2281
scalar LocScenario.node[994].nic.mac1609_4 	SlotsBackoff 	3381
scalar LocScenario.node[994].nic.mac1609_4 	NumInternalContention 	0
scalar LocScenario.node[994].nic.mac1609_4 	totalBusyTime 	1.033337
scalar LocScenario.node[994].veinsmobility 	startTime 	7455.1
scalar LocScenario.node[994].veinsmobility 	totalTime 	228
scalar LocScenario.node[994].veinsmobility 	stopTime 	7683.2
scalar LocScenario.node[994].veinsmobility 	minSpeed 	10.450013829453
scalar LocScenario.node[994].veinsmobility 	maxSpeed 	10.499938741641
scalar LocScenario.node[994].veinsmobility 	totalDistance 	2392.3127402032
scalar LocScenario.node[994].veinsmobility 	totalCO2Emission 	393.54573543095
scalar LocScenario.node[999].appl 	generatedWSMs 	0
scalar LocScenario.node[999].appl 	receivedWSMs 	0
scalar LocScenario.node[999].appl 	generatedBSMs 	2040
scalar LocScenario.node[999].appl 	receivedBSMs 	4964
scalar LocScenario.node[999].appl 	generatedWSAs 	0
scalar LocScenario.node[999].appl 	receivedWSAs 	0
scalar LocScenario.node[999].appl 	rmseSUMGPS 	540080.5931016
scalar LocScenario.node[999].appl 	rmseSUMCP 	1515621.7576358
scalar LocScenario.node[999].appl 	delaySum 	4.8948156492106
scalar LocScenario.node[999].nic.phy80211p 	busyTime 	0.0025306666666666
scalar LocScenario.node[999].nic.mac1609_4 	ReceivedUnicastPackets 	0
scalar LocScenario.node[999].nic.mac1609_4 	ReceivedBroadcasts 	4964
scalar LocScenario.node[999].nic.mac1609_4 	SentPackets 	2040
scalar LocScenario.node[999].nic.mac1609_4 	SNIRLostPackets 	0
scalar LocScenario.node[999].nic.mac1609_4 	RXTXLostPackets 	0
scalar LocScenario.node[999].nic.mac1609_4 	TotalLostPackets 	0
scalar LocScenario.node[999].nic.mac1609_4 	DroppedPacketsInMac 	0
scalar LocScenario.node[999].nic.mac1609_4 	TooLittleTime 	0
scalar LocScenario.node[999].nic.mac1609_4 	TimesIntoBackoff 	2040
scalar LocScenario.node[999].nic.mac1609_4 	SlotsBackoff 	3033
scalar LocScenario.node[999].nic.mac1609_4 	NumInternalContention 	0
scalar LocScenario.node[999].nic.mac1609_4 	totalBusyTime 	0.730456
scalar LocScenario.node[999].veinsmobility 	startTime 	7485.1
scalar LocScenario.node[999].veinsmobility 	totalTime 	203.9
scalar LocScenario.node[999].veinsmobility 	stopTime 	7689.1
scalar LocScenario.node[999].veinsmobility 	minSpeed 	10.450021406671
scalar LocScenario.node[999].veinsmobility 	maxSpeed 	10.499996080727
scalar LocScenario.node[999].veinsmobility 	totalDistance 	2138.6256432015
scalar LocScenario.node[999].veinsmobility 	totalCO2Emission 	352.58415092463
scalar LocScenario.node[996].appl 	generatedWSMs 	0
scalar LocScenario.node[996].appl 	receivedWSMs 	0
scalar LocScenario.node[996].appl 	generatedBSMs 	2281
scalar LocScenario.node[996].appl 	receivedBSMs 	7242
scalar LocScenario.node[996].appl 	generatedWSAs 	0
scalar LocScenario.node[996].appl 	receivedWSAs 	0
scalar LocScenario.node[996].appl 	rmseSUMGPS 	21484.563993594
scalar LocScenario.node[996].appl 	rmseSUMCP 	1654479.4135454
scalar LocScenario.node[996].appl 	delaySum 	1.961297927056
scalar LocScenario.node[996].nic.phy80211p 	busyTime 	0.0033789741341515
scalar LocScenario.node[996].nic.mac1609_4 	ReceivedUnicastPackets 	0
scalar LocScenario.node[996].nic.mac1609_4 	ReceivedBroadcasts 	7242
scalar LocScenario.node[996].nic.mac1609_4 	SentPackets 	2281
scalar LocScenario.node[996].nic.mac1609_4 	SNIRLostPackets 	169
scalar LocScenario.node[996].nic.mac1609_4 	RXTXLostPackets 	0
scalar LocScenario.node[996].nic.mac1609_4 	TotalLostPackets 	169
scalar LocScenario.node[996].nic.mac1609_4 	DroppedPacketsInMac 	0
scalar LocScenario.node[996].nic.mac1609_4 	TooLittleTime 	0
scalar LocScenario.node[996].nic.mac1609_4 	TimesIntoBackoff 	2281
scalar LocScenario.node[996].nic.mac1609_4 	SlotsBackoff 	3419
scalar LocScenario.node[996].nic.mac1609_4 	NumInternalContention 	0
scalar LocScenario.node[996].nic.mac1609_4 	totalBusyTime 	1.002657
scalar LocScenario.node[996].veinsmobility 	startTime 	7470.1
scalar LocScenario.node[996].veinsmobility 	totalTime 	228
scalar LocScenario.node[996].veinsmobility 	stopTime 	7698.2
scalar LocScenario.node[996].veinsmobility 	minSpeed 	10.450001633517
scalar LocScenario.node[996].veinsmobility 	maxSpeed 	10.499998715124
scalar LocScenario.node[996].veinsmobility 	totalDistance 	2394.7723336281
scalar LocScenario.node[996].veinsmobility 	totalCO2Emission 	393.95638726708
scalar LocScenario.node[998].appl 	generatedWSMs 	0
scalar LocScenario.node[998].appl 	receivedWSMs 	0
scalar LocScenario.node[998].appl 	generatedBSMs 	2281
scalar LocScenario.node[998].appl 	receivedBSMs 	5034
scalar LocScenario.node[998].appl 	generatedWSAs 	0
scalar LocScenario.node[998].appl 	receivedWSAs 	0
scalar LocScenario.node[998].appl 	rmseSUMGPS 	28175.159779473
scalar LocScenario.node[998].appl 	rmseSUMCP 	2081754.8452988
scalar LocScenario.node[998].appl 	delaySum 	5.928778499002
scalar LocScenario.node[998].nic.phy80211p 	busyTime 	0.0023066023673826
scalar LocScenario.node[998].nic.mac1609_4 	ReceivedUnicastPackets 	0
scalar LocScenario.node[998].nic.mac1609_4 	ReceivedBroadcasts 	5034
scalar LocScenario.node[998].nic.mac1609_4 	SentPackets 	2281
scalar LocScenario.node[998].nic.mac1609_4 	SNIRLostPackets 	25
scalar LocScenario.node[998].nic.mac1609_4 	RXTXLostPackets 	0
scalar LocScenario.node[998].nic.mac1609_4 	TotalLostPackets 	25
scalar LocScenario.node[998].nic.mac1609_4 	DroppedPacketsInMac 	0
scalar LocScenario.node[998].nic.mac1609_4 	TooLittleTime 	0
scalar LocScenario.node[998].nic.mac1609_4 	TimesIntoBackoff 	2281
scalar LocScenario.node[998].nic.mac1609_4 	SlotsBackoff 	3503
scalar LocScenario.node[998].nic.mac1609_4 	NumInternalContention 	0
scalar LocScenario.node[998].nic.mac1609_4 	totalBusyTime 	0.765641
scalar LocScenario.node[998].veinsmobility 	startTime 	7485.1
scalar LocScenario.node[998].veinsmobility 	totalTime 	228
scalar LocScenario.node[998].veinsmobility 	stopTime 	7713.2
scalar LocScenario.node[998].veinsmobility 	minSpeed 	10.450006556232
scalar LocScenario.node[998].veinsmobility 	maxSpeed 	10.499977707921
scalar LocScenario.node[998].veinsmobility 	totalDistance 	2394.6794943185
scalar LocScenario.node[998].veinsmobility 	totalCO2Emission 	393.20188654593
scalar LocScenario.outagesServer.appl 	generatedWSMs 	0
scalar LocScenario.outagesServer.appl 	receivedWSMs 	0
scalar LocScenario.outagesServer.appl 	generatedBSMs 	0
scalar LocScenario.outagesServer.appl 	receivedBSMs 	0
scalar LocScenario.outagesServer.appl 	generatedWSAs 	0
scalar LocScenario.outagesServer.appl 	receivedWSAs 	0
scalar LocScenario.outagesServer.nic.phy80211p 	busyTime 	0
scalar LocScenario.outagesServer.nic.mac1609_4 	ReceivedUnicastPackets 	0
scalar LocScenario.outagesServer.nic.mac1609_4 	ReceivedBroadcasts 	0
scalar LocScenario.outagesServer.nic.mac1609_4 	SentPackets 	0
scalar LocScenario.outagesServer.nic.mac1609_4 	SNIRLostPackets 	0
scalar LocScenario.outagesServer.nic.mac1609_4 	RXTXLostPackets 	0
scalar LocScenario.outagesServer.nic.mac1609_4 	TotalLostPackets 	0
scalar LocScenario.outagesServer.nic.mac1609_4 	DroppedPacketsInMac 	0
scalar LocScenario.outagesServer.nic.mac1609_4 	TooLittleTime 	0
scalar LocScenario.outagesServer.nic.mac1609_4 	TimesIntoBackoff 	0
scalar LocScenario.outagesServer.nic.mac1609_4 	SlotsBackoff 	0
scalar LocScenario.outagesServer.nic.mac1609_4 	NumInternalContention 	0
scalar LocScenario.outagesServer.nic.mac1609_4 	totalBusyTime 	0
