version 2
run DMAT-82-20171113-07:35:05-893
attr configname DMAT
attr datetime 20171113-07:35:05
attr experiment DMAT
attr hops 4
attr inifile omnetpp.ini
attr iterationvars "$logVehPeriod=10, $hops=4"
attr iterationvars2 "$logVehPeriod=10, $hops=4, $repetition=2"
attr logVehPeriod 10
attr measurement "$logVehPeriod=10, $hops=4"
attr network com.liborio.cooppos.LocScenario
attr processid 893
attr repetition 2
attr replication #2
attr resultdir results
attr runnumber 82
attr seedset 2
param **.coreDebug false
param **.debug false
param *.annotations.draw false
param *.connectionManager.drawMaxIntfDist false
param *.connectionManager.maxInterfDist 600m
param *.connectionManager.sendDirect true
param *.manager.autoShutdown true
param *.manager.host "\"localhost\""
param *.manager.launchConfig "xmldoc(\"dmat-\"+string(${logVehPeriod = 15, 10, 5, 3, 1})+\".launchd.xml\")"
param *.manager.port 9999
param *.manager.updateInterval 0.1s
param *.node[*].appl.beaconInterval 0.1s
param *.node[*].appl.dataOnSch false
param *.node[*].appl.headerLength "80 bit"
param *.node[*].appl.hops "${hops = 1, 2, 3, 4, 5}"
param *.node[*].appl.logVehPeriod ${logVehPeriod}
param *.node[*].appl.seedPar ${repetition}
param *.node[*].appl.sendBeacons true
param *.node[*].applType "\"Communication\""
param *.node[*].nic.mac1609_4.bitrate 6Mbps
param *.node[*].nic.mac1609_4.txPower 20mW
param *.node[*].nic.mac1609_4.useServiceChannel false
param *.node[*].nic.phy80211p.analogueModels "xmldoc(\"config.xml\")"
param *.node[*].nic.phy80211p.antenna "xmldoc(\"antenna.xml\", \"/root/Antenna[@id='monopole']\")"
param *.node[*].nic.phy80211p.decider "xmldoc(\"config.xml\")"
param *.node[*].nic.phy80211p.sensitivity -84.39dBm
param *.node[*].nic.phy80211p.thermalNoise -110dBm
param *.node[*].nic.phy80211p.usePropagationDelay true
param *.node[*].nic.phy80211p.useThermalNoise true
param *.node[*].veinsmobility.x 0
param *.node[*].veinsmobility.y 0
param *.node[*].veinsmobility.z 1.895
param *.node[*].veinsmobilityType.debug true
param *.outagesServer.appl.beaconInterval 0.1s
param *.outagesServer.appl.beaconPriority 3
param *.outagesServer.appl.dataOnSch false
param *.outagesServer.appl.dataPriority 2
param *.outagesServer.appl.headerLength "80 bit"
param *.outagesServer.appl.sendBeacons false
param *.outagesServer.applType "\"Outages\""
param *.outagesServer.mobility.x 5000.0
param *.outagesServer.mobility.y 5000.0
param *.outagesServer.mobility.z 3
param *.outagesServer.nic.mac1609_4.bitrate 6Mbps
param *.outagesServer.nic.mac1609_4.txPower 20mW
param *.outagesServer.nic.mac1609_4.useServiceChannel false
param *.outagesServer.nic.phy80211p.analogueModels "xmldoc(\"config.xml\")"
param *.outagesServer.nic.phy80211p.antenna "xmldoc(\"antenna.xml\", \"/root/Antenna[@id='monopole']\")"
param *.outagesServer.nic.phy80211p.decider "xmldoc(\"config.xml\")"
param *.outagesServer.nic.phy80211p.sensitivity -84.39dBm
param *.outagesServer.nic.phy80211p.thermalNoise -110dBm
param *.outagesServer.nic.phy80211p.usePropagationDelay true
param *.outagesServer.nic.phy80211p.useThermalNoise true
param *.playgroundSizeX 20000m
param *.playgroundSizeY 20000m
param *.playgroundSizeZ 50m

scalar . 	hops 	4
scalar . 	logVehPeriod 	10
scalar LocScenario.node[1].appl 	generatedWSMs 	0
scalar LocScenario.node[1].appl 	receivedWSMs 	0
scalar LocScenario.node[1].appl 	generatedBSMs 	2040
scalar LocScenario.node[1].appl 	receivedBSMs 	7984
scalar LocScenario.node[1].appl 	generatedWSAs 	0
scalar LocScenario.node[1].appl 	receivedWSAs 	0
scalar LocScenario.node[1].appl 	rmseSUMGPS 	580739.61027194
scalar LocScenario.node[1].appl 	rmseSUMCP 	552275.5505584
scalar LocScenario.node[1].appl 	delaySum 	0.89379922255324
scalar LocScenario.node[1].nic.phy80211p 	busyTime 	0.0040702745098037
scalar LocScenario.node[1].nic.mac1609_4 	ReceivedUnicastPackets 	0
scalar LocScenario.node[1].nic.mac1609_4 	ReceivedBroadcasts 	7984
scalar LocScenario.node[1].nic.mac1609_4 	SentPackets 	2040
scalar LocScenario.node[1].nic.mac1609_4 	SNIRLostPackets 	0
scalar LocScenario.node[1].nic.mac1609_4 	RXTXLostPackets 	0
scalar LocScenario.node[1].nic.mac1609_4 	TotalLostPackets 	0
scalar LocScenario.node[1].nic.mac1609_4 	DroppedPacketsInMac 	0
scalar LocScenario.node[1].nic.mac1609_4 	TooLittleTime 	0
scalar LocScenario.node[1].nic.mac1609_4 	TimesIntoBackoff 	2040
scalar LocScenario.node[1].nic.mac1609_4 	SlotsBackoff 	3072
scalar LocScenario.node[1].nic.mac1609_4 	NumInternalContention 	0
scalar LocScenario.node[1].nic.mac1609_4 	totalBusyTime 	1.044536
scalar LocScenario.node[1].veinsmobility 	startTime 	0.1
scalar LocScenario.node[1].veinsmobility 	totalTime 	203.9
scalar LocScenario.node[1].veinsmobility 	stopTime 	204.1
scalar LocScenario.node[1].veinsmobility 	minSpeed 	10.450046251586
scalar LocScenario.node[1].veinsmobility 	maxSpeed 	10.499943364051
scalar LocScenario.node[1].veinsmobility 	totalDistance 	2138.8037065983
scalar LocScenario.node[1].veinsmobility 	totalCO2Emission 	351.94891105869
scalar LocScenario.node[3].appl 	generatedWSMs 	0
scalar LocScenario.node[3].appl 	receivedWSMs 	0
scalar LocScenario.node[3].appl 	generatedBSMs 	2040
scalar LocScenario.node[3].appl 	receivedBSMs 	10141
scalar LocScenario.node[3].appl 	generatedWSAs 	0
scalar LocScenario.node[3].appl 	receivedWSAs 	0
scalar LocScenario.node[3].appl 	rmseSUMGPS 	983998.25245494
scalar LocScenario.node[3].appl 	rmseSUMCP 	538912.28783857
scalar LocScenario.node[3].appl 	delaySum 	1.1351548310912
scalar LocScenario.node[3].nic.phy80211p 	busyTime 	0.0051699215686274
scalar LocScenario.node[3].nic.mac1609_4 	ReceivedUnicastPackets 	0
scalar LocScenario.node[3].nic.mac1609_4 	ReceivedBroadcasts 	10141
scalar LocScenario.node[3].nic.mac1609_4 	SentPackets 	2040
scalar LocScenario.node[3].nic.mac1609_4 	SNIRLostPackets 	0
scalar LocScenario.node[3].nic.mac1609_4 	RXTXLostPackets 	0
scalar LocScenario.node[3].nic.mac1609_4 	TotalLostPackets 	0
scalar LocScenario.node[3].nic.mac1609_4 	DroppedPacketsInMac 	0
scalar LocScenario.node[3].nic.mac1609_4 	TooLittleTime 	0
scalar LocScenario.node[3].nic.mac1609_4 	TimesIntoBackoff 	2040
scalar LocScenario.node[3].nic.mac1609_4 	SlotsBackoff 	3012
scalar LocScenario.node[3].nic.mac1609_4 	NumInternalContention 	0
scalar LocScenario.node[3].nic.mac1609_4 	totalBusyTime 	1.268864
scalar LocScenario.node[3].veinsmobility 	startTime 	10.1
scalar LocScenario.node[3].veinsmobility 	totalTime 	203.9
scalar LocScenario.node[3].veinsmobility 	stopTime 	214.1
scalar LocScenario.node[3].veinsmobility 	minSpeed 	10.450004546763
scalar LocScenario.node[3].veinsmobility 	maxSpeed 	10.499946409545
scalar LocScenario.node[3].veinsmobility 	totalDistance 	2138.7987382608
scalar LocScenario.node[3].veinsmobility 	totalCO2Emission 	351.17126348157
scalar LocScenario.node[5].appl 	generatedWSMs 	0
scalar LocScenario.node[5].appl 	receivedWSMs 	0
scalar LocScenario.node[5].appl 	generatedBSMs 	2040
scalar LocScenario.node[5].appl 	receivedBSMs 	12097
scalar LocScenario.node[5].appl 	generatedWSAs 	0
scalar LocScenario.node[5].appl 	receivedWSAs 	0
scalar LocScenario.node[5].appl 	rmseSUMGPS 	1027012.5661423
scalar LocScenario.node[5].appl 	rmseSUMCP 	10279590.47586
scalar LocScenario.node[5].appl 	delaySum 	1.3542772899787
scalar LocScenario.node[5].nic.phy80211p 	busyTime 	0.0061670980392167
scalar LocScenario.node[5].nic.mac1609_4 	ReceivedUnicastPackets 	0
scalar LocScenario.node[5].nic.mac1609_4 	ReceivedBroadcasts 	12097
scalar LocScenario.node[5].nic.mac1609_4 	SentPackets 	2040
scalar LocScenario.node[5].nic.mac1609_4 	SNIRLostPackets 	0
scalar LocScenario.node[5].nic.mac1609_4 	RXTXLostPackets 	0
scalar LocScenario.node[5].nic.mac1609_4 	TotalLostPackets 	0
scalar LocScenario.node[5].nic.mac1609_4 	DroppedPacketsInMac 	0
scalar LocScenario.node[5].nic.mac1609_4 	TooLittleTime 	0
scalar LocScenario.node[5].nic.mac1609_4 	TimesIntoBackoff 	2040
scalar LocScenario.node[5].nic.mac1609_4 	SlotsBackoff 	3000
scalar LocScenario.node[5].nic.mac1609_4 	NumInternalContention 	0
scalar LocScenario.node[5].nic.mac1609_4 	totalBusyTime 	1.472288
scalar LocScenario.node[5].veinsmobility 	startTime 	20.1
scalar LocScenario.node[5].veinsmobility 	totalTime 	203.9
scalar LocScenario.node[5].veinsmobility 	stopTime 	224.1
scalar LocScenario.node[5].veinsmobility 	minSpeed 	10.450004104106
scalar LocScenario.node[5].veinsmobility 	maxSpeed 	10.499979555723
scalar LocScenario.node[5].veinsmobility 	totalDistance 	2133.9369697189
scalar LocScenario.node[5].veinsmobility 	totalCO2Emission 	351.91195172054
scalar LocScenario.node[0].appl 	generatedWSMs 	0
scalar LocScenario.node[0].appl 	receivedWSMs 	0
scalar LocScenario.node[0].appl 	generatedBSMs 	2281
scalar LocScenario.node[0].appl 	receivedBSMs 	8734
scalar LocScenario.node[0].appl 	generatedWSAs 	0
scalar LocScenario.node[0].appl 	receivedWSAs 	0
scalar LocScenario.node[0].appl 	rmseSUMGPS 	129118.41172617
scalar LocScenario.node[0].appl 	rmseSUMCP 	434283.6995681
scalar LocScenario.node[0].appl 	delaySum 	0.97751017629329
scalar LocScenario.node[0].nic.phy80211p 	busyTime 	0.003982183252959
scalar LocScenario.node[0].nic.mac1609_4 	ReceivedUnicastPackets 	0
scalar LocScenario.node[0].nic.mac1609_4 	ReceivedBroadcasts 	8734
scalar LocScenario.node[0].nic.mac1609_4 	SentPackets 	2281
scalar LocScenario.node[0].nic.mac1609_4 	SNIRLostPackets 	0
scalar LocScenario.node[0].nic.mac1609_4 	RXTXLostPackets 	0
scalar LocScenario.node[0].nic.mac1609_4 	TotalLostPackets 	0
scalar LocScenario.node[0].nic.mac1609_4 	DroppedPacketsInMac 	0
scalar LocScenario.node[0].nic.mac1609_4 	TooLittleTime 	0
scalar LocScenario.node[0].nic.mac1609_4 	TimesIntoBackoff 	2281
scalar LocScenario.node[0].nic.mac1609_4 	SlotsBackoff 	3513
scalar LocScenario.node[0].nic.mac1609_4 	NumInternalContention 	0
scalar LocScenario.node[0].nic.mac1609_4 	totalBusyTime 	1.147841
scalar LocScenario.node[0].veinsmobility 	startTime 	0.1
scalar LocScenario.node[0].veinsmobility 	totalTime 	228
scalar LocScenario.node[0].veinsmobility 	stopTime 	228.2
scalar LocScenario.node[0].veinsmobility 	minSpeed 	10.450044307811
scalar LocScenario.node[0].veinsmobility 	maxSpeed 	10.499975697463
scalar LocScenario.node[0].veinsmobility 	totalDistance 	2394.8609116833
scalar LocScenario.node[0].veinsmobility 	totalCO2Emission 	393.32317819219
scalar LocScenario.node[7].appl 	generatedWSMs 	0
scalar LocScenario.node[7].appl 	receivedWSMs 	0
scalar LocScenario.node[7].appl 	generatedBSMs 	2040
scalar LocScenario.node[7].appl 	receivedBSMs 	12297
scalar LocScenario.node[7].appl 	generatedWSAs 	0
scalar LocScenario.node[7].appl 	receivedWSAs 	0
scalar LocScenario.node[7].appl 	rmseSUMGPS 	856092.19003504
scalar LocScenario.node[7].appl 	rmseSUMCP 	8867377.1197169
scalar LocScenario.node[7].appl 	delaySum 	1.3763233612622
scalar LocScenario.node[7].nic.phy80211p 	busyTime 	0.0062690588235305
scalar LocScenario.node[7].nic.mac1609_4 	ReceivedUnicastPackets 	0
scalar LocScenario.node[7].nic.mac1609_4 	ReceivedBroadcasts 	12297
scalar LocScenario.node[7].nic.mac1609_4 	SentPackets 	2040
scalar LocScenario.node[7].nic.mac1609_4 	SNIRLostPackets 	0
scalar LocScenario.node[7].nic.mac1609_4 	RXTXLostPackets 	0
scalar LocScenario.node[7].nic.mac1609_4 	TotalLostPackets 	0
scalar LocScenario.node[7].nic.mac1609_4 	DroppedPacketsInMac 	0
scalar LocScenario.node[7].nic.mac1609_4 	TooLittleTime 	0
scalar LocScenario.node[7].nic.mac1609_4 	TimesIntoBackoff 	2040
scalar LocScenario.node[7].nic.mac1609_4 	SlotsBackoff 	3055
scalar LocScenario.node[7].nic.mac1609_4 	NumInternalContention 	0
scalar LocScenario.node[7].nic.mac1609_4 	totalBusyTime 	1.493088
scalar LocScenario.node[7].veinsmobility 	startTime 	30.1
scalar LocScenario.node[7].veinsmobility 	totalTime 	203.9
scalar LocScenario.node[7].veinsmobility 	stopTime 	234.1
scalar LocScenario.node[7].veinsmobility 	minSpeed 	10.450031672814
scalar LocScenario.node[7].veinsmobility 	maxSpeed 	10.49998160043
scalar LocScenario.node[7].veinsmobility 	totalDistance 	2138.8216537046
scalar LocScenario.node[7].veinsmobility 	totalCO2Emission 	351.1055207014
scalar LocScenario.node[2].appl 	generatedWSMs 	0
scalar LocScenario.node[2].appl 	receivedWSMs 	0
scalar LocScenario.node[2].appl 	generatedBSMs 	2281
scalar LocScenario.node[2].appl 	receivedBSMs 	11137
scalar LocScenario.node[2].appl 	generatedWSAs 	0
scalar LocScenario.node[2].appl 	receivedWSAs 	0
scalar LocScenario.node[2].appl 	rmseSUMGPS 	22652.283465022
scalar LocScenario.node[2].appl 	rmseSUMCP 	343781.79588764
scalar LocScenario.node[2].appl 	delaySum 	1.2464752722126
scalar LocScenario.node[2].nic.phy80211p 	busyTime 	0.0050778079789571
scalar LocScenario.node[2].nic.mac1609_4 	ReceivedUnicastPackets 	0
scalar LocScenario.node[2].nic.mac1609_4 	ReceivedBroadcasts 	11137
scalar LocScenario.node[2].nic.mac1609_4 	SentPackets 	2281
scalar LocScenario.node[2].nic.mac1609_4 	SNIRLostPackets 	0
scalar LocScenario.node[2].nic.mac1609_4 	RXTXLostPackets 	0
scalar LocScenario.node[2].nic.mac1609_4 	TotalLostPackets 	0
scalar LocScenario.node[2].nic.mac1609_4 	DroppedPacketsInMac 	0
scalar LocScenario.node[2].nic.mac1609_4 	TooLittleTime 	0
scalar LocScenario.node[2].nic.mac1609_4 	TimesIntoBackoff 	2281
scalar LocScenario.node[2].nic.mac1609_4 	SlotsBackoff 	3415
scalar LocScenario.node[2].nic.mac1609_4 	NumInternalContention 	0
scalar LocScenario.node[2].nic.mac1609_4 	totalBusyTime 	1.397753
scalar LocScenario.node[2].veinsmobility 	startTime 	10.1
scalar LocScenario.node[2].veinsmobility 	totalTime 	228
scalar LocScenario.node[2].veinsmobility 	stopTime 	238.2
scalar LocScenario.node[2].veinsmobility 	minSpeed 	10.450035179732
scalar LocScenario.node[2].veinsmobility 	maxSpeed 	10.49996763512
scalar LocScenario.node[2].veinsmobility 	totalDistance 	2394.7300467884
scalar LocScenario.node[2].veinsmobility 	totalCO2Emission 	393.8239200361
scalar LocScenario.node[9].appl 	generatedWSMs 	0
scalar LocScenario.node[9].appl 	receivedWSMs 	0
scalar LocScenario.node[9].appl 	generatedBSMs 	2040
scalar LocScenario.node[9].appl 	receivedBSMs 	12544
scalar LocScenario.node[9].appl 	generatedWSAs 	0
scalar LocScenario.node[9].appl 	receivedWSAs 	0
scalar LocScenario.node[9].appl 	rmseSUMGPS 	695561.58451423
scalar LocScenario.node[9].appl 	rmseSUMCP 	2605512.1331238
scalar LocScenario.node[9].appl 	delaySum 	1.403529481199
scalar LocScenario.node[9].nic.phy80211p 	busyTime 	0.0063949803921581
scalar LocScenario.node[9].nic.mac1609_4 	ReceivedUnicastPackets 	0
scalar LocScenario.node[9].nic.mac1609_4 	ReceivedBroadcasts 	12544
scalar LocScenario.node[9].nic.mac1609_4 	SentPackets 	2040
scalar LocScenario.node[9].nic.mac1609_4 	SNIRLostPackets 	0
scalar LocScenario.node[9].nic.mac1609_4 	RXTXLostPackets 	0
scalar LocScenario.node[9].nic.mac1609_4 	TotalLostPackets 	0
scalar LocScenario.node[9].nic.mac1609_4 	DroppedPacketsInMac 	0
scalar LocScenario.node[9].nic.mac1609_4 	TooLittleTime 	0
scalar LocScenario.node[9].nic.mac1609_4 	TimesIntoBackoff 	2040
scalar LocScenario.node[9].nic.mac1609_4 	SlotsBackoff 	3058
scalar LocScenario.node[9].nic.mac1609_4 	NumInternalContention 	0
scalar LocScenario.node[9].nic.mac1609_4 	totalBusyTime 	1.518776
scalar LocScenario.node[9].veinsmobility 	startTime 	40.1
scalar LocScenario.node[9].veinsmobility 	totalTime 	203.9
scalar LocScenario.node[9].veinsmobility 	stopTime 	244.1
scalar LocScenario.node[9].veinsmobility 	minSpeed 	10.450002479483
scalar LocScenario.node[9].veinsmobility 	maxSpeed 	10.499983544007
scalar LocScenario.node[9].veinsmobility 	totalDistance 	2133.9467264095
scalar LocScenario.node[9].veinsmobility 	totalCO2Emission 	352.17176400203
scalar LocScenario.node[4].appl 	generatedWSMs 	0
scalar LocScenario.node[4].appl 	receivedWSMs 	0
scalar LocScenario.node[4].appl 	generatedBSMs 	2281
scalar LocScenario.node[4].appl 	receivedBSMs 	13368
scalar LocScenario.node[4].appl 	generatedWSAs 	0
scalar LocScenario.node[4].appl 	receivedWSAs 	0
scalar LocScenario.node[4].appl 	rmseSUMGPS 	128892.33780581
scalar LocScenario.node[4].appl 	rmseSUMCP 	906560.95753667
scalar LocScenario.node[4].appl 	delaySum 	1.4966217499553
scalar LocScenario.node[4].nic.phy80211p 	busyTime 	0.0060950109601067
scalar LocScenario.node[4].nic.mac1609_4 	ReceivedUnicastPackets 	0
scalar LocScenario.node[4].nic.mac1609_4 	ReceivedBroadcasts 	13368
scalar LocScenario.node[4].nic.mac1609_4 	SentPackets 	2281
scalar LocScenario.node[4].nic.mac1609_4 	SNIRLostPackets 	0
scalar LocScenario.node[4].nic.mac1609_4 	RXTXLostPackets 	0
scalar LocScenario.node[4].nic.mac1609_4 	TotalLostPackets 	0
scalar LocScenario.node[4].nic.mac1609_4 	DroppedPacketsInMac 	0
scalar LocScenario.node[4].nic.mac1609_4 	TooLittleTime 	0
scalar LocScenario.node[4].nic.mac1609_4 	TimesIntoBackoff 	2281
scalar LocScenario.node[4].nic.mac1609_4 	SlotsBackoff 	3395
scalar LocScenario.node[4].nic.mac1609_4 	NumInternalContention 	0
scalar LocScenario.node[4].nic.mac1609_4 	totalBusyTime 	1.629777
scalar LocScenario.node[4].veinsmobility 	startTime 	20.1
scalar LocScenario.node[4].veinsmobility 	totalTime 	228
scalar LocScenario.node[4].veinsmobility 	stopTime 	248.2
scalar LocScenario.node[4].veinsmobility 	minSpeed 	10.450019812479
scalar LocScenario.node[4].veinsmobility 	maxSpeed 	10.499973988277
scalar LocScenario.node[4].veinsmobility 	totalDistance 	2394.7113464909
scalar LocScenario.node[4].veinsmobility 	totalCO2Emission 	393.50739833535
scalar LocScenario.node[11].appl 	generatedWSMs 	0
scalar LocScenario.node[11].appl 	receivedWSMs 	0
scalar LocScenario.node[11].appl 	generatedBSMs 	2040
scalar LocScenario.node[11].appl 	receivedBSMs 	12760
scalar LocScenario.node[11].appl 	generatedWSAs 	0
scalar LocScenario.node[11].appl 	receivedWSAs 	0
scalar LocScenario.node[11].appl 	rmseSUMGPS 	729469.33288335
scalar LocScenario.node[11].appl 	rmseSUMCP 	1720984.078528
scalar LocScenario.node[11].appl 	delaySum 	1.4276654006386
scalar LocScenario.node[11].nic.phy80211p 	busyTime 	0.006505098039217
scalar LocScenario.node[11].nic.mac1609_4 	ReceivedUnicastPackets 	0
scalar LocScenario.node[11].nic.mac1609_4 	ReceivedBroadcasts 	12760
scalar LocScenario.node[11].nic.mac1609_4 	SentPackets 	2040
scalar LocScenario.node[11].nic.mac1609_4 	SNIRLostPackets 	0
scalar LocScenario.node[11].nic.mac1609_4 	RXTXLostPackets 	0
scalar LocScenario.node[11].nic.mac1609_4 	TotalLostPackets 	0
scalar LocScenario.node[11].nic.mac1609_4 	DroppedPacketsInMac 	0
scalar LocScenario.node[11].nic.mac1609_4 	TooLittleTime 	0
scalar LocScenario.node[11].nic.mac1609_4 	TimesIntoBackoff 	2040
scalar LocScenario.node[11].nic.mac1609_4 	SlotsBackoff 	3094
scalar LocScenario.node[11].nic.mac1609_4 	NumInternalContention 	0
scalar LocScenario.node[11].nic.mac1609_4 	totalBusyTime 	1.54124
scalar LocScenario.node[11].veinsmobility 	startTime 	50.1
scalar LocScenario.node[11].veinsmobility 	totalTime 	203.9
scalar LocScenario.node[11].veinsmobility 	stopTime 	254.1
scalar LocScenario.node[11].veinsmobility 	minSpeed 	10.45000996493
scalar LocScenario.node[11].veinsmobility 	maxSpeed 	10.499995407229
scalar LocScenario.node[11].veinsmobility 	totalDistance 	2133.831906022
scalar LocScenario.node[11].veinsmobility 	totalCO2Emission 	351.85743393747
scalar LocScenario.node[6].appl 	generatedWSMs 	0
scalar LocScenario.node[6].appl 	receivedWSMs 	0
scalar LocScenario.node[6].appl 	generatedBSMs 	2281
scalar LocScenario.node[6].appl 	receivedBSMs 	13589
scalar LocScenario.node[6].appl 	generatedWSAs 	0
scalar LocScenario.node[6].appl 	receivedWSAs 	0
scalar LocScenario.node[6].appl 	rmseSUMGPS 	23497.287354307
scalar LocScenario.node[6].appl 	rmseSUMCP 	1056897.4411884
scalar LocScenario.node[6].appl 	delaySum 	1.5214257372138
scalar LocScenario.node[6].nic.phy80211p 	busyTime 	0.0061957737834299
scalar LocScenario.node[6].nic.mac1609_4 	ReceivedUnicastPackets 	0
scalar LocScenario.node[6].nic.mac1609_4 	ReceivedBroadcasts 	13589
scalar LocScenario.node[6].nic.mac1609_4 	SentPackets 	2281
scalar LocScenario.node[6].nic.mac1609_4 	SNIRLostPackets 	0
scalar LocScenario.node[6].nic.mac1609_4 	RXTXLostPackets 	0
scalar LocScenario.node[6].nic.mac1609_4 	TotalLostPackets 	0
scalar LocScenario.node[6].nic.mac1609_4 	DroppedPacketsInMac 	0
scalar LocScenario.node[6].nic.mac1609_4 	TooLittleTime 	0
scalar LocScenario.node[6].nic.mac1609_4 	TimesIntoBackoff 	2281
scalar LocScenario.node[6].nic.mac1609_4 	SlotsBackoff 	3428
scalar LocScenario.node[6].nic.mac1609_4 	NumInternalContention 	0
scalar LocScenario.node[6].nic.mac1609_4 	totalBusyTime 	1.652761
scalar LocScenario.node[6].veinsmobility 	startTime 	30.1
scalar LocScenario.node[6].veinsmobility 	totalTime 	228
scalar LocScenario.node[6].veinsmobility 	stopTime 	258.2
scalar LocScenario.node[6].veinsmobility 	minSpeed 	10.450010557333
scalar LocScenario.node[6].veinsmobility 	maxSpeed 	10.499982794048
scalar LocScenario.node[6].veinsmobility 	totalDistance 	2394.713419091
scalar LocScenario.node[6].veinsmobility 	totalCO2Emission 	393.36037417199
scalar LocScenario.node[13].appl 	generatedWSMs 	0
scalar LocScenario.node[13].appl 	receivedWSMs 	0
scalar LocScenario.node[13].appl 	generatedBSMs 	2040
scalar LocScenario.node[13].appl 	receivedBSMs 	12964
scalar LocScenario.node[13].appl 	generatedWSAs 	0
scalar LocScenario.node[13].appl 	receivedWSAs 	0
scalar LocScenario.node[13].appl 	rmseSUMGPS 	709009.65800575
scalar LocScenario.node[13].appl 	rmseSUMCP 	1939246.6230494
scalar LocScenario.node[13].appl 	delaySum 	1.4549634301403
scalar LocScenario.node[13].nic.phy80211p 	busyTime 	0.0066101176470603
scalar LocScenario.node[13].nic.mac1609_4 	ReceivedUnicastPackets 	0
scalar LocScenario.node[13].nic.mac1609_4 	ReceivedBroadcasts 	12964
scalar LocScenario.node[13].nic.mac1609_4 	SentPackets 	2040
scalar LocScenario.node[13].nic.mac1609_4 	SNIRLostPackets 	2
scalar LocScenario.node[13].nic.mac1609_4 	RXTXLostPackets 	0
scalar LocScenario.node[13].nic.mac1609_4 	TotalLostPackets 	2
scalar LocScenario.node[13].nic.mac1609_4 	DroppedPacketsInMac 	0
scalar LocScenario.node[13].nic.mac1609_4 	TooLittleTime 	0
scalar LocScenario.node[13].nic.mac1609_4 	TimesIntoBackoff 	2040
scalar LocScenario.node[13].nic.mac1609_4 	SlotsBackoff 	3139
scalar LocScenario.node[13].nic.mac1609_4 	NumInternalContention 	0
scalar LocScenario.node[13].nic.mac1609_4 	totalBusyTime 	1.562664
scalar LocScenario.node[13].veinsmobility 	startTime 	60.1
scalar LocScenario.node[13].veinsmobility 	totalTime 	203.9
scalar LocScenario.node[13].veinsmobility 	stopTime 	264.1
scalar LocScenario.node[13].veinsmobility 	minSpeed 	10.45000111307
scalar LocScenario.node[13].veinsmobility 	maxSpeed 	10.499972350884
scalar LocScenario.node[13].veinsmobility 	totalDistance 	2138.7819927424
scalar LocScenario.node[13].veinsmobility 	totalCO2Emission 	351.57741192522
scalar LocScenario.node[8].appl 	generatedWSMs 	0
scalar LocScenario.node[8].appl 	receivedWSMs 	0
scalar LocScenario.node[8].appl 	generatedBSMs 	2281
scalar LocScenario.node[8].appl 	receivedBSMs 	13811
scalar LocScenario.node[8].appl 	generatedWSAs 	0
scalar LocScenario.node[8].appl 	receivedWSAs 	0
scalar LocScenario.node[8].appl 	rmseSUMGPS 	710517.24965291
scalar LocScenario.node[8].appl 	rmseSUMCP 	838113.20227826
scalar LocScenario.node[8].appl 	delaySum 	2.5196862748883e+180
scalar LocScenario.node[8].nic.phy80211p 	busyTime 	0.0062969925471301
scalar LocScenario.node[8].nic.mac1609_4 	ReceivedUnicastPackets 	0
scalar LocScenario.node[8].nic.mac1609_4 	ReceivedBroadcasts 	13811
scalar LocScenario.node[8].nic.mac1609_4 	SentPackets 	2281
scalar LocScenario.node[8].nic.mac1609_4 	SNIRLostPackets 	0
scalar LocScenario.node[8].nic.mac1609_4 	RXTXLostPackets 	0
scalar LocScenario.node[8].nic.mac1609_4 	TotalLostPackets 	0
scalar LocScenario.node[8].nic.mac1609_4 	DroppedPacketsInMac 	0
scalar LocScenario.node[8].nic.mac1609_4 	TooLittleTime 	0
scalar LocScenario.node[8].nic.mac1609_4 	TimesIntoBackoff 	2281
scalar LocScenario.node[8].nic.mac1609_4 	SlotsBackoff 	3459
scalar LocScenario.node[8].nic.mac1609_4 	NumInternalContention 	0
scalar LocScenario.node[8].nic.mac1609_4 	totalBusyTime 	1.675849
scalar LocScenario.node[8].veinsmobility 	startTime 	40.1
scalar LocScenario.node[8].veinsmobility 	totalTime 	228
scalar LocScenario.node[8].veinsmobility 	stopTime 	268.2
scalar LocScenario.node[8].veinsmobility 	minSpeed 	10.450009838538
scalar LocScenario.node[8].veinsmobility 	maxSpeed 	10.499959944084
scalar LocScenario.node[8].veinsmobility 	totalDistance 	2388.636039366
scalar LocScenario.node[8].veinsmobility 	totalCO2Emission 	392.95264933285
scalar LocScenario.node[15].appl 	generatedWSMs 	0
scalar LocScenario.node[15].appl 	receivedWSMs 	0
scalar LocScenario.node[15].appl 	generatedBSMs 	2040
scalar LocScenario.node[15].appl 	receivedBSMs 	13192
scalar LocScenario.node[15].appl 	generatedWSAs 	0
scalar LocScenario.node[15].appl 	receivedWSAs 	0
scalar LocScenario.node[15].appl 	rmseSUMGPS 	1173613.1605657
scalar LocScenario.node[15].appl 	rmseSUMCP 	877005.952084
scalar LocScenario.node[15].appl 	delaySum 	1.4913460932265
scalar LocScenario.node[15].nic.phy80211p 	busyTime 	0.0067401176470604
scalar LocScenario.node[15].nic.mac1609_4 	ReceivedUnicastPackets 	0
scalar LocScenario.node[15].nic.mac1609_4 	ReceivedBroadcasts 	13192
scalar LocScenario.node[15].nic.mac1609_4 	SentPackets 	2040
scalar LocScenario.node[15].nic.mac1609_4 	SNIRLostPackets 	29
scalar LocScenario.node[15].nic.mac1609_4 	RXTXLostPackets 	0
scalar LocScenario.node[15].nic.mac1609_4 	TotalLostPackets 	29
scalar LocScenario.node[15].nic.mac1609_4 	DroppedPacketsInMac 	0
scalar LocScenario.node[15].nic.mac1609_4 	TooLittleTime 	0
scalar LocScenario.node[15].nic.mac1609_4 	TimesIntoBackoff 	2040
scalar LocScenario.node[15].nic.mac1609_4 	SlotsBackoff 	3211
scalar LocScenario.node[15].nic.mac1609_4 	NumInternalContention 	0
scalar LocScenario.node[15].nic.mac1609_4 	totalBusyTime 	1.589184
scalar LocScenario.node[15].veinsmobility 	startTime 	70.1
scalar LocScenario.node[15].veinsmobility 	totalTime 	203.9
scalar LocScenario.node[15].veinsmobility 	stopTime 	274.1
scalar LocScenario.node[15].veinsmobility 	minSpeed 	10.450016658439
scalar LocScenario.node[15].veinsmobility 	maxSpeed 	10.499929185887
scalar LocScenario.node[15].veinsmobility 	totalDistance 	2133.7581100549
scalar LocScenario.node[15].veinsmobility 	totalCO2Emission 	352.22080863808
scalar LocScenario.node[10].appl 	generatedWSMs 	0
scalar LocScenario.node[10].appl 	receivedWSMs 	0
scalar LocScenario.node[10].appl 	generatedBSMs 	2281
scalar LocScenario.node[10].appl 	receivedBSMs 	14034
scalar LocScenario.node[10].appl 	generatedWSAs 	0
scalar LocScenario.node[10].appl 	receivedWSAs 	0
scalar LocScenario.node[10].appl 	rmseSUMGPS 	43798.057264324
scalar LocScenario.node[10].appl 	rmseSUMCP 	835855.09517709
scalar LocScenario.node[10].appl 	delaySum 	5.5458898883336e+15
scalar LocScenario.node[10].nic.phy80211p 	busyTime 	0.0063986672512074
scalar LocScenario.node[10].nic.mac1609_4 	ReceivedUnicastPackets 	0
scalar LocScenario.node[10].nic.mac1609_4 	ReceivedBroadcasts 	14034
scalar LocScenario.node[10].nic.mac1609_4 	SentPackets 	2281
scalar LocScenario.node[10].nic.mac1609_4 	SNIRLostPackets 	0
scalar LocScenario.node[10].nic.mac1609_4 	RXTXLostPackets 	0
scalar LocScenario.node[10].nic.mac1609_4 	TotalLostPackets 	0
scalar LocScenario.node[10].nic.mac1609_4 	DroppedPacketsInMac 	0
scalar LocScenario.node[10].nic.mac1609_4 	TooLittleTime 	0
scalar LocScenario.node[10].nic.mac1609_4 	TimesIntoBackoff 	2281
scalar LocScenario.node[10].nic.mac1609_4 	SlotsBackoff 	3481
scalar LocScenario.node[10].nic.mac1609_4 	NumInternalContention 	0
scalar LocScenario.node[10].nic.mac1609_4 	totalBusyTime 	1.699041
scalar LocScenario.node[10].veinsmobility 	startTime 	50.1
scalar LocScenario.node[10].veinsmobility 	totalTime 	228
scalar LocScenario.node[10].veinsmobility 	stopTime 	278.2
scalar LocScenario.node[10].veinsmobility 	minSpeed 	10.450038926641
scalar LocScenario.node[10].veinsmobility 	maxSpeed 	10.499959657271
scalar LocScenario.node[10].veinsmobility 	totalDistance 	2392.352265393
scalar LocScenario.node[10].veinsmobility 	totalCO2Emission 	393.93176116914
scalar LocScenario.node[17].appl 	generatedWSMs 	0
scalar LocScenario.node[17].appl 	receivedWSMs 	0
scalar LocScenario.node[17].appl 	generatedBSMs 	2040
scalar LocScenario.node[17].appl 	receivedBSMs 	12941
scalar LocScenario.node[17].appl 	generatedWSAs 	0
scalar LocScenario.node[17].appl 	receivedWSAs 	0
scalar LocScenario.node[17].appl 	rmseSUMGPS 	664630.80856599
scalar LocScenario.node[17].appl 	rmseSUMCP 	773150.32463707
scalar LocScenario.node[17].appl 	delaySum 	1.4870562379427
scalar LocScenario.node[17].nic.phy80211p 	busyTime 	0.0068369803921585
scalar LocScenario.node[17].nic.mac1609_4 	ReceivedUnicastPackets 	0
scalar LocScenario.node[17].nic.mac1609_4 	ReceivedBroadcasts 	12941
scalar LocScenario.node[17].nic.mac1609_4 	SentPackets 	2040
scalar LocScenario.node[17].nic.mac1609_4 	SNIRLostPackets 	470
scalar LocScenario.node[17].nic.mac1609_4 	RXTXLostPackets 	0
scalar LocScenario.node[17].nic.mac1609_4 	TotalLostPackets 	470
scalar LocScenario.node[17].nic.mac1609_4 	DroppedPacketsInMac 	0
scalar LocScenario.node[17].nic.mac1609_4 	TooLittleTime 	0
scalar LocScenario.node[17].nic.mac1609_4 	TimesIntoBackoff 	2040
scalar LocScenario.node[17].nic.mac1609_4 	SlotsBackoff 	3043
scalar LocScenario.node[17].nic.mac1609_4 	NumInternalContention 	0
scalar LocScenario.node[17].nic.mac1609_4 	totalBusyTime 	1.586202173943
scalar LocScenario.node[17].veinsmobility 	startTime 	80.1
scalar LocScenario.node[17].veinsmobility 	totalTime 	203.9
scalar LocScenario.node[17].veinsmobility 	stopTime 	284.1
scalar LocScenario.node[17].veinsmobility 	minSpeed 	10.450033422897
scalar LocScenario.node[17].veinsmobility 	maxSpeed 	10.499999031529
scalar LocScenario.node[17].veinsmobility 	totalDistance 	2138.7826915426
scalar LocScenario.node[17].veinsmobility 	totalCO2Emission 	352.37879055221
scalar LocScenario.node[12].appl 	generatedWSMs 	0
scalar LocScenario.node[12].appl 	receivedWSMs 	0
scalar LocScenario.node[12].appl 	generatedBSMs 	2281
scalar LocScenario.node[12].appl 	receivedBSMs 	14249
scalar LocScenario.node[12].appl 	generatedWSAs 	0
scalar LocScenario.node[12].appl 	receivedWSAs 	0
scalar LocScenario.node[12].appl 	rmseSUMGPS 	762922.64041338
scalar LocScenario.node[12].appl 	rmseSUMCP 	1016254.6579588
scalar LocScenario.node[12].appl 	delaySum 	1.5953412335325
scalar LocScenario.node[12].nic.phy80211p 	busyTime 	0.0064966944322684
scalar LocScenario.node[12].nic.mac1609_4 	ReceivedUnicastPackets 	0
scalar LocScenario.node[12].nic.mac1609_4 	ReceivedBroadcasts 	14249
scalar LocScenario.node[12].nic.mac1609_4 	SentPackets 	2281
scalar LocScenario.node[12].nic.mac1609_4 	SNIRLostPackets 	0
scalar LocScenario.node[12].nic.mac1609_4 	RXTXLostPackets 	0
scalar LocScenario.node[12].nic.mac1609_4 	TotalLostPackets 	0
scalar LocScenario.node[12].nic.mac1609_4 	DroppedPacketsInMac 	0
scalar LocScenario.node[12].nic.mac1609_4 	TooLittleTime 	0
scalar LocScenario.node[12].nic.mac1609_4 	TimesIntoBackoff 	2281
scalar LocScenario.node[12].nic.mac1609_4 	SlotsBackoff 	3387
scalar LocScenario.node[12].nic.mac1609_4 	NumInternalContention 	0
scalar LocScenario.node[12].nic.mac1609_4 	totalBusyTime 	1.721401
scalar LocScenario.node[12].veinsmobility 	startTime 	60.1
scalar LocScenario.node[12].veinsmobility 	totalTime 	228
scalar LocScenario.node[12].veinsmobility 	stopTime 	288.2
scalar LocScenario.node[12].veinsmobility 	minSpeed 	10.450019650336
scalar LocScenario.node[12].veinsmobility 	maxSpeed 	10.499993392522
scalar LocScenario.node[12].veinsmobility 	totalDistance 	2388.7767261888
scalar LocScenario.node[12].veinsmobility 	totalCO2Emission 	392.8614578726
scalar LocScenario.node[19].appl 	generatedWSMs 	0
scalar LocScenario.node[19].appl 	receivedWSMs 	0
scalar LocScenario.node[19].appl 	generatedBSMs 	2040
scalar LocScenario.node[19].appl 	receivedBSMs 	13402
scalar LocScenario.node[19].appl 	generatedWSAs 	0
scalar LocScenario.node[19].appl 	receivedWSAs 	0
scalar LocScenario.node[19].appl 	rmseSUMGPS 	1619411.3372774
scalar LocScenario.node[19].appl 	rmseSUMCP 	665311.71765573
scalar LocScenario.node[19].appl 	delaySum 	1.5563783026019
scalar LocScenario.node[19].nic.phy80211p 	busyTime 	0.0069593333333351
scalar LocScenario.node[19].nic.mac1609_4 	ReceivedUnicastPackets 	0
scalar LocScenario.node[19].nic.mac1609_4 	ReceivedBroadcasts 	13402
scalar LocScenario.node[19].nic.mac1609_4 	SentPackets 	2040
scalar LocScenario.node[19].nic.mac1609_4 	SNIRLostPackets 	249
scalar LocScenario.node[19].nic.mac1609_4 	RXTXLostPackets 	0
scalar LocScenario.node[19].nic.mac1609_4 	TotalLostPackets 	249
scalar LocScenario.node[19].nic.mac1609_4 	DroppedPacketsInMac 	0
scalar LocScenario.node[19].nic.mac1609_4 	TooLittleTime 	0
scalar LocScenario.node[19].nic.mac1609_4 	TimesIntoBackoff 	2040
scalar LocScenario.node[19].nic.mac1609_4 	SlotsBackoff 	3050
scalar LocScenario.node[19].nic.mac1609_4 	NumInternalContention 	0
scalar LocScenario.node[19].nic.mac1609_4 	totalBusyTime 	1.620592146975
scalar LocScenario.node[19].veinsmobility 	startTime 	90.1
scalar LocScenario.node[19].veinsmobility 	totalTime 	203.9
scalar LocScenario.node[19].veinsmobility 	stopTime 	294.1
scalar LocScenario.node[19].veinsmobility 	minSpeed 	10.450006243552
scalar LocScenario.node[19].veinsmobility 	maxSpeed 	10.499957639095
scalar LocScenario.node[19].veinsmobility 	totalDistance 	2133.9170547629
scalar LocScenario.node[19].veinsmobility 	totalCO2Emission 	351.61590793087
scalar LocScenario.node[14].appl 	generatedWSMs 	0
scalar LocScenario.node[14].appl 	receivedWSMs 	0
scalar LocScenario.node[14].appl 	generatedBSMs 	2281
scalar LocScenario.node[14].appl 	receivedBSMs 	14466
scalar LocScenario.node[14].appl 	generatedWSAs 	0
scalar LocScenario.node[14].appl 	receivedWSAs 	0
scalar LocScenario.node[14].appl 	rmseSUMGPS 	1072059.9584733
scalar LocScenario.node[14].appl 	rmseSUMCP 	791933.71849512
scalar LocScenario.node[14].appl 	delaySum 	1.6196790700207
scalar LocScenario.node[14].nic.phy80211p 	busyTime 	0.0065956334940835
scalar LocScenario.node[14].nic.mac1609_4 	ReceivedUnicastPackets 	0
scalar LocScenario.node[14].nic.mac1609_4 	ReceivedBroadcasts 	14466
scalar LocScenario.node[14].nic.mac1609_4 	SentPackets 	2281
scalar LocScenario.node[14].nic.mac1609_4 	SNIRLostPackets 	0
scalar LocScenario.node[14].nic.mac1609_4 	RXTXLostPackets 	0
scalar LocScenario.node[14].nic.mac1609_4 	TotalLostPackets 	0
scalar LocScenario.node[14].nic.mac1609_4 	DroppedPacketsInMac 	0
scalar LocScenario.node[14].nic.mac1609_4 	TooLittleTime 	0
scalar LocScenario.node[14].nic.mac1609_4 	TimesIntoBackoff 	2281
scalar LocScenario.node[14].nic.mac1609_4 	SlotsBackoff 	3497
scalar LocScenario.node[14].nic.mac1609_4 	NumInternalContention 	0
scalar LocScenario.node[14].nic.mac1609_4 	totalBusyTime 	1.743969
scalar LocScenario.node[14].veinsmobility 	startTime 	70.1
scalar LocScenario.node[14].veinsmobility 	totalTime 	228
scalar LocScenario.node[14].veinsmobility 	stopTime 	298.2
scalar LocScenario.node[14].veinsmobility 	minSpeed 	10.450034592138
scalar LocScenario.node[14].veinsmobility 	maxSpeed 	10.49999304337
scalar LocScenario.node[14].veinsmobility 	totalDistance 	2388.7608149445
scalar LocScenario.node[14].veinsmobility 	totalCO2Emission 	392.99762136317
scalar LocScenario.node[21].appl 	generatedWSMs 	0
scalar LocScenario.node[21].appl 	receivedWSMs 	0
scalar LocScenario.node[21].appl 	generatedBSMs 	2040
scalar LocScenario.node[21].appl 	receivedBSMs 	13831
scalar LocScenario.node[21].appl 	generatedWSAs 	0
scalar LocScenario.node[21].appl 	receivedWSAs 	0
scalar LocScenario.node[21].appl 	rmseSUMGPS 	882169.57673234
scalar LocScenario.node[21].appl 	rmseSUMCP 	646567.61640638
scalar LocScenario.node[21].appl 	delaySum 	1.5930085658594
scalar LocScenario.node[21].nic.phy80211p 	busyTime 	0.0070521176470607
scalar LocScenario.node[21].nic.mac1609_4 	ReceivedUnicastPackets 	0
scalar LocScenario.node[21].nic.mac1609_4 	ReceivedBroadcasts 	13831
scalar LocScenario.node[21].nic.mac1609_4 	SentPackets 	2040
scalar LocScenario.node[21].nic.mac1609_4 	SNIRLostPackets 	0
scalar LocScenario.node[21].nic.mac1609_4 	RXTXLostPackets 	30
scalar LocScenario.node[21].nic.mac1609_4 	TotalLostPackets 	30
scalar LocScenario.node[21].nic.mac1609_4 	DroppedPacketsInMac 	0
scalar LocScenario.node[21].nic.mac1609_4 	TooLittleTime 	0
scalar LocScenario.node[21].nic.mac1609_4 	TimesIntoBackoff 	2262
scalar LocScenario.node[21].nic.mac1609_4 	SlotsBackoff 	3433
scalar LocScenario.node[21].nic.mac1609_4 	NumInternalContention 	0
scalar LocScenario.node[21].nic.mac1609_4 	totalBusyTime 	1.652624045829
scalar LocScenario.node[21].veinsmobility 	startTime 	100.1
scalar LocScenario.node[21].veinsmobility 	totalTime 	203.9
scalar LocScenario.node[21].veinsmobility 	stopTime 	304.1
scalar LocScenario.node[21].veinsmobility 	minSpeed 	10.450010192383
scalar LocScenario.node[21].veinsmobility 	maxSpeed 	10.499997743953
scalar LocScenario.node[21].veinsmobility 	totalDistance 	2133.833823445
scalar LocScenario.node[21].veinsmobility 	totalCO2Emission 	351.8831540734
scalar LocScenario.node[16].appl 	generatedWSMs 	0
scalar LocScenario.node[16].appl 	receivedWSMs 	0
scalar LocScenario.node[16].appl 	generatedBSMs 	2281
scalar LocScenario.node[16].appl 	receivedBSMs 	14678
scalar LocScenario.node[16].appl 	generatedWSAs 	0
scalar LocScenario.node[16].appl 	receivedWSAs 	0
scalar LocScenario.node[16].appl 	rmseSUMGPS 	60950.4418903
scalar LocScenario.node[16].appl 	rmseSUMCP 	753125.76494569
scalar LocScenario.node[16].appl 	delaySum 	1.6438024459086
scalar LocScenario.node[16].nic.phy80211p 	busyTime 	0.0066922928540135
scalar LocScenario.node[16].nic.mac1609_4 	ReceivedUnicastPackets 	0
scalar LocScenario.node[16].nic.mac1609_4 	ReceivedBroadcasts 	14678
scalar LocScenario.node[16].nic.mac1609_4 	SentPackets 	2281
scalar LocScenario.node[16].nic.mac1609_4 	SNIRLostPackets 	0
scalar LocScenario.node[16].nic.mac1609_4 	RXTXLostPackets 	0
scalar LocScenario.node[16].nic.mac1609_4 	TotalLostPackets 	0
scalar LocScenario.node[16].nic.mac1609_4 	DroppedPacketsInMac 	0
scalar LocScenario.node[16].nic.mac1609_4 	TooLittleTime 	0
scalar LocScenario.node[16].nic.mac1609_4 	TimesIntoBackoff 	2281
scalar LocScenario.node[16].nic.mac1609_4 	SlotsBackoff 	3395
scalar LocScenario.node[16].nic.mac1609_4 	NumInternalContention 	0
scalar LocScenario.node[16].nic.mac1609_4 	totalBusyTime 	1.766017
scalar LocScenario.node[16].veinsmobility 	startTime 	80.1
scalar LocScenario.node[16].veinsmobility 	totalTime 	228
scalar LocScenario.node[16].veinsmobility 	stopTime 	308.2
scalar LocScenario.node[16].veinsmobility 	minSpeed 	10.450012595823
scalar LocScenario.node[16].veinsmobility 	maxSpeed 	10.499998111278
scalar LocScenario.node[16].veinsmobility 	totalDistance 	2392.4901792785
scalar LocScenario.node[16].veinsmobility 	totalCO2Emission 	393.24066798024
scalar LocScenario.node[23].appl 	generatedWSMs 	0
scalar LocScenario.node[23].appl 	receivedWSMs 	0
scalar LocScenario.node[23].appl 	generatedBSMs 	2040
scalar LocScenario.node[23].appl 	receivedBSMs 	13947
scalar LocScenario.node[23].appl 	generatedWSAs 	0
scalar LocScenario.node[23].appl 	receivedWSAs 	0
scalar LocScenario.node[23].appl 	rmseSUMGPS 	951457.64920114
scalar LocScenario.node[23].appl 	rmseSUMCP 	666562.9954025
scalar LocScenario.node[23].appl 	delaySum 	1.6536401945759
scalar LocScenario.node[23].nic.phy80211p 	busyTime 	0.0071790588235314
scalar LocScenario.node[23].nic.mac1609_4 	ReceivedUnicastPackets 	0
scalar LocScenario.node[23].nic.mac1609_4 	ReceivedBroadcasts 	13947
scalar LocScenario.node[23].nic.mac1609_4 	SentPackets 	2040
scalar LocScenario.node[23].nic.mac1609_4 	SNIRLostPackets 	135
scalar LocScenario.node[23].nic.mac1609_4 	RXTXLostPackets 	0
scalar LocScenario.node[23].nic.mac1609_4 	TotalLostPackets 	135
scalar LocScenario.node[23].nic.mac1609_4 	DroppedPacketsInMac 	0
scalar LocScenario.node[23].nic.mac1609_4 	TooLittleTime 	0
scalar LocScenario.node[23].nic.mac1609_4 	TimesIntoBackoff 	2040
scalar LocScenario.node[23].nic.mac1609_4 	SlotsBackoff 	2972
scalar LocScenario.node[23].nic.mac1609_4 	NumInternalContention 	0
scalar LocScenario.node[23].nic.mac1609_4 	totalBusyTime 	1.671568090565
scalar LocScenario.node[23].veinsmobility 	startTime 	110.1
scalar LocScenario.node[23].veinsmobility 	totalTime 	203.9
scalar LocScenario.node[23].veinsmobility 	stopTime 	314.1
scalar LocScenario.node[23].veinsmobility 	minSpeed 	10.450036482653
scalar LocScenario.node[23].veinsmobility 	maxSpeed 	10.499992570956
scalar LocScenario.node[23].veinsmobility 	totalDistance 	2138.8084079485
scalar LocScenario.node[23].veinsmobility 	totalCO2Emission 	352.47422725616
scalar LocScenario.node[18].appl 	generatedWSMs 	0
scalar LocScenario.node[18].appl 	receivedWSMs 	0
scalar LocScenario.node[18].appl 	generatedBSMs 	2281
scalar LocScenario.node[18].appl 	receivedBSMs 	14886
scalar LocScenario.node[18].appl 	generatedWSAs 	0
scalar LocScenario.node[18].appl 	receivedWSAs 	0
scalar LocScenario.node[18].appl 	rmseSUMGPS 	39043.650848118
scalar LocScenario.node[18].appl 	rmseSUMCP 	998470.36426911
scalar LocScenario.node[18].appl 	delaySum 	1.666686998062
scalar LocScenario.node[18].nic.phy80211p 	busyTime 	0.0067871284524353
scalar LocScenario.node[18].nic.mac1609_4 	ReceivedUnicastPackets 	0
scalar LocScenario.node[18].nic.mac1609_4 	ReceivedBroadcasts 	14886
scalar LocScenario.node[18].nic.mac1609_4 	SentPackets 	2281
scalar LocScenario.node[18].nic.mac1609_4 	SNIRLostPackets 	0
scalar LocScenario.node[18].nic.mac1609_4 	RXTXLostPackets 	0
scalar LocScenario.node[18].nic.mac1609_4 	TotalLostPackets 	0
scalar LocScenario.node[18].nic.mac1609_4 	DroppedPacketsInMac 	0
scalar LocScenario.node[18].nic.mac1609_4 	TooLittleTime 	0
scalar LocScenario.node[18].nic.mac1609_4 	TimesIntoBackoff 	2281
scalar LocScenario.node[18].nic.mac1609_4 	SlotsBackoff 	3467
scalar LocScenario.node[18].nic.mac1609_4 	NumInternalContention 	0
scalar LocScenario.node[18].nic.mac1609_4 	totalBusyTime 	1.787649
scalar LocScenario.node[18].veinsmobility 	startTime 	90.1
scalar LocScenario.node[18].veinsmobility 	totalTime 	228
scalar LocScenario.node[18].veinsmobility 	stopTime 	318.2
scalar LocScenario.node[18].veinsmobility 	minSpeed 	10.450035232177
scalar LocScenario.node[18].veinsmobility 	maxSpeed 	10.499992004153
scalar LocScenario.node[18].veinsmobility 	totalDistance 	2394.7093703665
scalar LocScenario.node[18].veinsmobility 	totalCO2Emission 	393.16861742119
scalar LocScenario.node[25].appl 	generatedWSMs 	0
scalar LocScenario.node[25].appl 	receivedWSMs 	0
scalar LocScenario.node[25].appl 	generatedBSMs 	2040
scalar LocScenario.node[25].appl 	receivedBSMs 	14042
scalar LocScenario.node[25].appl 	generatedWSAs 	0
scalar LocScenario.node[25].appl 	receivedWSAs 	0
scalar LocScenario.node[25].appl 	rmseSUMGPS 	613705.5935539
scalar LocScenario.node[25].appl 	rmseSUMCP 	651521.79754874
scalar LocScenario.node[25].appl 	delaySum 	1.6617074319207
scalar LocScenario.node[25].nic.phy80211p 	busyTime 	0.0072896862745119
scalar LocScenario.node[25].nic.mac1609_4 	ReceivedUnicastPackets 	0
scalar LocScenario.node[25].nic.mac1609_4 	ReceivedBroadcasts 	14042
scalar LocScenario.node[25].nic.mac1609_4 	SentPackets 	2040
scalar LocScenario.node[25].nic.mac1609_4 	SNIRLostPackets 	257
scalar LocScenario.node[25].nic.mac1609_4 	RXTXLostPackets 	0
scalar LocScenario.node[25].nic.mac1609_4 	TotalLostPackets 	257
scalar LocScenario.node[25].nic.mac1609_4 	DroppedPacketsInMac 	0
scalar LocScenario.node[25].nic.mac1609_4 	TooLittleTime 	0
scalar LocScenario.node[25].nic.mac1609_4 	TimesIntoBackoff 	2040
scalar LocScenario.node[25].nic.mac1609_4 	SlotsBackoff 	3080
scalar LocScenario.node[25].nic.mac1609_4 	NumInternalContention 	0
scalar LocScenario.node[25].nic.mac1609_4 	totalBusyTime 	1.69048
scalar LocScenario.node[25].veinsmobility 	startTime 	120.1
scalar LocScenario.node[25].veinsmobility 	totalTime 	203.9
scalar LocScenario.node[25].veinsmobility 	stopTime 	324.1
scalar LocScenario.node[25].veinsmobility 	minSpeed 	10.450021709129
scalar LocScenario.node[25].veinsmobility 	maxSpeed 	10.499966344668
scalar LocScenario.node[25].veinsmobility 	totalDistance 	2138.7994984273
scalar LocScenario.node[25].veinsmobility 	totalCO2Emission 	351.98143978775
scalar LocScenario.node[20].appl 	generatedWSMs 	0
scalar LocScenario.node[20].appl 	receivedWSMs 	0
scalar LocScenario.node[20].appl 	generatedBSMs 	2281
scalar LocScenario.node[20].appl 	receivedBSMs 	15096
scalar LocScenario.node[20].appl 	generatedWSAs 	0
scalar LocScenario.node[20].appl 	receivedWSAs 	0
scalar LocScenario.node[20].appl 	rmseSUMGPS 	701474.21898206
scalar LocScenario.node[20].appl 	rmseSUMCP 	783779.18685653
scalar LocScenario.node[20].appl 	delaySum 	1.6902222468212
scalar LocScenario.node[20].nic.phy80211p 	busyTime 	0.0068828759316112
scalar LocScenario.node[20].nic.mac1609_4 	ReceivedUnicastPackets 	0
scalar LocScenario.node[20].nic.mac1609_4 	ReceivedBroadcasts 	15096
scalar LocScenario.node[20].nic.mac1609_4 	SentPackets 	2281
scalar LocScenario.node[20].nic.mac1609_4 	SNIRLostPackets 	0
scalar LocScenario.node[20].nic.mac1609_4 	RXTXLostPackets 	0
scalar LocScenario.node[20].nic.mac1609_4 	TotalLostPackets 	0
scalar LocScenario.node[20].nic.mac1609_4 	DroppedPacketsInMac 	0
scalar LocScenario.node[20].nic.mac1609_4 	TooLittleTime 	0
scalar LocScenario.node[20].nic.mac1609_4 	TimesIntoBackoff 	2281
scalar LocScenario.node[20].nic.mac1609_4 	SlotsBackoff 	3433
scalar LocScenario.node[20].nic.mac1609_4 	NumInternalContention 	0
scalar LocScenario.node[20].nic.mac1609_4 	totalBusyTime 	1.809489
scalar LocScenario.node[20].veinsmobility 	startTime 	100.1
scalar LocScenario.node[20].veinsmobility 	totalTime 	228
scalar LocScenario.node[20].veinsmobility 	stopTime 	328.2
scalar LocScenario.node[20].veinsmobility 	minSpeed 	10.450006123993
scalar LocScenario.node[20].veinsmobility 	maxSpeed 	10.499992211664
scalar LocScenario.node[20].veinsmobility 	totalDistance 	2388.673099862
scalar LocScenario.node[20].veinsmobility 	totalCO2Emission 	393.89693669553
scalar LocScenario.node[27].appl 	generatedWSMs 	0
scalar LocScenario.node[27].appl 	receivedWSMs 	0
scalar LocScenario.node[27].appl 	generatedBSMs 	2040
scalar LocScenario.node[27].appl 	receivedBSMs 	14484
scalar LocScenario.node[27].appl 	generatedWSAs 	0
scalar LocScenario.node[27].appl 	receivedWSAs 	0
scalar LocScenario.node[27].appl 	rmseSUMGPS 	778564.52833053
scalar LocScenario.node[27].appl 	rmseSUMCP 	669468.26442934
scalar LocScenario.node[27].appl 	delaySum 	1.6733084537322
scalar LocScenario.node[27].nic.phy80211p 	busyTime 	0.0073987843137277
scalar LocScenario.node[27].nic.mac1609_4 	ReceivedUnicastPackets 	0
scalar LocScenario.node[27].nic.mac1609_4 	ReceivedBroadcasts 	14484
scalar LocScenario.node[27].nic.mac1609_4 	SentPackets 	2040
scalar LocScenario.node[27].nic.mac1609_4 	SNIRLostPackets 	29
scalar LocScenario.node[27].nic.mac1609_4 	RXTXLostPackets 	0
scalar LocScenario.node[27].nic.mac1609_4 	TotalLostPackets 	29
scalar LocScenario.node[27].nic.mac1609_4 	DroppedPacketsInMac 	0
scalar LocScenario.node[27].nic.mac1609_4 	TooLittleTime 	0
scalar LocScenario.node[27].nic.mac1609_4 	TimesIntoBackoff 	2040
scalar LocScenario.node[27].nic.mac1609_4 	SlotsBackoff 	3090
scalar LocScenario.node[27].nic.mac1609_4 	NumInternalContention 	0
scalar LocScenario.node[27].nic.mac1609_4 	totalBusyTime 	1.723448
scalar LocScenario.node[27].veinsmobility 	startTime 	130.1
scalar LocScenario.node[27].veinsmobility 	totalTime 	203.9
scalar LocScenario.node[27].veinsmobility 	stopTime 	334.1
scalar LocScenario.node[27].veinsmobility 	minSpeed 	10.450059611793
scalar LocScenario.node[27].veinsmobility 	maxSpeed 	10.499985201715
scalar LocScenario.node[27].veinsmobility 	totalDistance 	2133.8003378574
scalar LocScenario.node[27].veinsmobility 	totalCO2Emission 	351.87532828242
scalar LocScenario.node[22].appl 	generatedWSMs 	0
scalar LocScenario.node[22].appl 	receivedWSMs 	0
scalar LocScenario.node[22].appl 	generatedBSMs 	2281
scalar LocScenario.node[22].appl 	receivedBSMs 	15320
scalar LocScenario.node[22].appl 	generatedWSAs 	0
scalar LocScenario.node[22].appl 	receivedWSAs 	0
scalar LocScenario.node[22].appl 	rmseSUMGPS 	83941.535499543
scalar LocScenario.node[22].appl 	rmseSUMCP 	786738.14373722
scalar LocScenario.node[22].appl 	delaySum 	-1.804978556566e+181
scalar LocScenario.node[22].nic.phy80211p 	busyTime 	0.0069850065760655
scalar LocScenario.node[22].nic.mac1609_4 	ReceivedUnicastPackets 	0
scalar LocScenario.node[22].nic.mac1609_4 	ReceivedBroadcasts 	15320
scalar LocScenario.node[22].nic.mac1609_4 	SentPackets 	2281
scalar LocScenario.node[22].nic.mac1609_4 	SNIRLostPackets 	0
scalar LocScenario.node[22].nic.mac1609_4 	RXTXLostPackets 	0
scalar LocScenario.node[22].nic.mac1609_4 	TotalLostPackets 	0
scalar LocScenario.node[22].nic.mac1609_4 	DroppedPacketsInMac 	0
scalar LocScenario.node[22].nic.mac1609_4 	TooLittleTime 	0
scalar LocScenario.node[22].nic.mac1609_4 	TimesIntoBackoff 	2281
scalar LocScenario.node[22].nic.mac1609_4 	SlotsBackoff 	3472
scalar LocScenario.node[22].nic.mac1609_4 	NumInternalContention 	0
scalar LocScenario.node[22].nic.mac1609_4 	totalBusyTime 	1.832785
scalar LocScenario.node[22].veinsmobility 	startTime 	110.1
scalar LocScenario.node[22].veinsmobility 	totalTime 	228
scalar LocScenario.node[22].veinsmobility 	stopTime 	338.2
scalar LocScenario.node[22].veinsmobility 	minSpeed 	10.450005727576
scalar LocScenario.node[22].veinsmobility 	maxSpeed 	10.499933216441
scalar LocScenario.node[22].veinsmobility 	totalDistance 	2394.7151766298
scalar LocScenario.node[22].veinsmobility 	totalCO2Emission 	393.4590284765
scalar LocScenario.node[29].appl 	generatedWSMs 	0
scalar LocScenario.node[29].appl 	receivedWSMs 	0
scalar LocScenario.node[29].appl 	generatedBSMs 	2040
scalar LocScenario.node[29].appl 	receivedBSMs 	14720
scalar LocScenario.node[29].appl 	generatedWSAs 	0
scalar LocScenario.node[29].appl 	receivedWSAs 	0
scalar LocScenario.node[29].appl 	rmseSUMGPS 	745901.81584322
scalar LocScenario.node[29].appl 	rmseSUMCP 	675430.96292041
scalar LocScenario.node[29].appl 	delaySum 	1.7005706635089
scalar LocScenario.node[29].nic.phy80211p 	busyTime 	0.0075043137254925
scalar LocScenario.node[29].nic.mac1609_4 	ReceivedUnicastPackets 	0
scalar LocScenario.node[29].nic.mac1609_4 	ReceivedBroadcasts 	14720
scalar LocScenario.node[29].nic.mac1609_4 	SentPackets 	2040
scalar LocScenario.node[29].nic.mac1609_4 	SNIRLostPackets 	0
scalar LocScenario.node[29].nic.mac1609_4 	RXTXLostPackets 	0
scalar LocScenario.node[29].nic.mac1609_4 	TotalLostPackets 	0
scalar LocScenario.node[29].nic.mac1609_4 	DroppedPacketsInMac 	0
scalar LocScenario.node[29].nic.mac1609_4 	TooLittleTime 	0
scalar LocScenario.node[29].nic.mac1609_4 	TimesIntoBackoff 	2040
scalar LocScenario.node[29].nic.mac1609_4 	SlotsBackoff 	3087
scalar LocScenario.node[29].nic.mac1609_4 	NumInternalContention 	0
scalar LocScenario.node[29].nic.mac1609_4 	totalBusyTime 	1.74508
scalar LocScenario.node[29].veinsmobility 	startTime 	140.1
scalar LocScenario.node[29].veinsmobility 	totalTime 	203.9
scalar LocScenario.node[29].veinsmobility 	stopTime 	344.1
scalar LocScenario.node[29].veinsmobility 	minSpeed 	10.450023680797
scalar LocScenario.node[29].veinsmobility 	maxSpeed 	10.49998159114
scalar LocScenario.node[29].veinsmobility 	totalDistance 	2138.6956370573
scalar LocScenario.node[29].veinsmobility 	totalCO2Emission 	351.55809640851
scalar LocScenario.node[24].appl 	generatedWSMs 	0
scalar LocScenario.node[24].appl 	receivedWSMs 	0
scalar LocScenario.node[24].appl 	generatedBSMs 	2281
scalar LocScenario.node[24].appl 	receivedBSMs 	15537
scalar LocScenario.node[24].appl 	generatedWSAs 	0
scalar LocScenario.node[24].appl 	receivedWSAs 	0
scalar LocScenario.node[24].appl 	rmseSUMGPS 	700823.87812335
scalar LocScenario.node[24].appl 	rmseSUMCP 	695073.94023423
scalar LocScenario.node[24].appl 	delaySum 	-3.45936056023e+238
scalar LocScenario.node[24].nic.phy80211p 	busyTime 	0.0070839456378806
scalar LocScenario.node[24].nic.mac1609_4 	ReceivedUnicastPackets 	0
scalar LocScenario.node[24].nic.mac1609_4 	ReceivedBroadcasts 	15537
scalar LocScenario.node[24].nic.mac1609_4 	SentPackets 	2281
scalar LocScenario.node[24].nic.mac1609_4 	SNIRLostPackets 	0
scalar LocScenario.node[24].nic.mac1609_4 	RXTXLostPackets 	0
scalar LocScenario.node[24].nic.mac1609_4 	TotalLostPackets 	0
scalar LocScenario.node[24].nic.mac1609_4 	DroppedPacketsInMac 	0
scalar LocScenario.node[24].nic.mac1609_4 	TooLittleTime 	0
scalar LocScenario.node[24].nic.mac1609_4 	TimesIntoBackoff 	2281
scalar LocScenario.node[24].nic.mac1609_4 	SlotsBackoff 	3480
scalar LocScenario.node[24].nic.mac1609_4 	NumInternalContention 	0
scalar LocScenario.node[24].nic.mac1609_4 	totalBusyTime 	1.855353
scalar LocScenario.node[24].veinsmobility 	startTime 	120.1
scalar LocScenario.node[24].veinsmobility 	totalTime 	228
scalar LocScenario.node[24].veinsmobility 	stopTime 	348.2
scalar LocScenario.node[24].veinsmobility 	minSpeed 	10.450026617071
scalar LocScenario.node[24].veinsmobility 	maxSpeed 	10.499998518371
scalar LocScenario.node[24].veinsmobility 	totalDistance 	2388.6634581668
scalar LocScenario.node[24].veinsmobility 	totalCO2Emission 	393.4224639261
scalar LocScenario.node[31].appl 	generatedWSMs 	0
scalar LocScenario.node[31].appl 	receivedWSMs 	0
scalar LocScenario.node[31].appl 	generatedBSMs 	2040
scalar LocScenario.node[31].appl 	receivedBSMs 	14915
scalar LocScenario.node[31].appl 	generatedWSAs 	0
scalar LocScenario.node[31].appl 	receivedWSAs 	0
scalar LocScenario.node[31].appl 	rmseSUMGPS 	684612.86555878
scalar LocScenario.node[31].appl 	rmseSUMCP 	655363.89472832
scalar LocScenario.node[31].appl 	delaySum 	1.7224075108422
scalar LocScenario.node[31].nic.phy80211p 	busyTime 	0.0076037254901985
scalar LocScenario.node[31].nic.mac1609_4 	ReceivedUnicastPackets 	0
scalar LocScenario.node[31].nic.mac1609_4 	ReceivedBroadcasts 	14915
scalar LocScenario.node[31].nic.mac1609_4 	SentPackets 	2040
scalar LocScenario.node[31].nic.mac1609_4 	SNIRLostPackets 	0
scalar LocScenario.node[31].nic.mac1609_4 	RXTXLostPackets 	0
scalar LocScenario.node[31].nic.mac1609_4 	TotalLostPackets 	0
scalar LocScenario.node[31].nic.mac1609_4 	DroppedPacketsInMac 	0
scalar LocScenario.node[31].nic.mac1609_4 	TooLittleTime 	0
scalar LocScenario.node[31].nic.mac1609_4 	TimesIntoBackoff 	2040
scalar LocScenario.node[31].nic.mac1609_4 	SlotsBackoff 	3016
scalar LocScenario.node[31].nic.mac1609_4 	NumInternalContention 	0
scalar LocScenario.node[31].nic.mac1609_4 	totalBusyTime 	1.76536
scalar LocScenario.node[31].veinsmobility 	startTime 	150.1
scalar LocScenario.node[31].veinsmobility 	totalTime 	203.9
scalar LocScenario.node[31].veinsmobility 	stopTime 	354.1
scalar LocScenario.node[31].veinsmobility 	minSpeed 	10.450003825384
scalar LocScenario.node[31].veinsmobility 	maxSpeed 	10.499973908812
scalar LocScenario.node[31].veinsmobility 	totalDistance 	2138.6414337206
scalar LocScenario.node[31].veinsmobility 	totalCO2Emission 	351.54429070941
scalar LocScenario.node[26].appl 	generatedWSMs 	0
scalar LocScenario.node[26].appl 	receivedWSMs 	0
scalar LocScenario.node[26].appl 	generatedBSMs 	2281
scalar LocScenario.node[26].appl 	receivedBSMs 	15763
scalar LocScenario.node[26].appl 	generatedWSAs 	0
scalar LocScenario.node[26].appl 	receivedWSAs 	0
scalar LocScenario.node[26].appl 	rmseSUMGPS 	67008.32018214
scalar LocScenario.node[26].appl 	rmseSUMCP 	660991.24411763
scalar LocScenario.node[26].appl 	delaySum 	1240.8405353853
scalar LocScenario.node[26].nic.phy80211p 	busyTime 	0.0071869881630889
scalar LocScenario.node[26].nic.mac1609_4 	ReceivedUnicastPackets 	0
scalar LocScenario.node[26].nic.mac1609_4 	ReceivedBroadcasts 	15763
scalar LocScenario.node[26].nic.mac1609_4 	SentPackets 	2281
scalar LocScenario.node[26].nic.mac1609_4 	SNIRLostPackets 	0
scalar LocScenario.node[26].nic.mac1609_4 	RXTXLostPackets 	0
scalar LocScenario.node[26].nic.mac1609_4 	TotalLostPackets 	0
scalar LocScenario.node[26].nic.mac1609_4 	DroppedPacketsInMac 	0
scalar LocScenario.node[26].nic.mac1609_4 	TooLittleTime 	0
scalar LocScenario.node[26].nic.mac1609_4 	TimesIntoBackoff 	2281
scalar LocScenario.node[26].nic.mac1609_4 	SlotsBackoff 	3501
scalar LocScenario.node[26].nic.mac1609_4 	NumInternalContention 	0
scalar LocScenario.node[26].nic.mac1609_4 	totalBusyTime 	1.878857
scalar LocScenario.node[26].veinsmobility 	startTime 	130.1
scalar LocScenario.node[26].veinsmobility 	totalTime 	228
scalar LocScenario.node[26].veinsmobility 	stopTime 	358.2
scalar LocScenario.node[26].veinsmobility 	minSpeed 	10.450012250303
scalar LocScenario.node[26].veinsmobility 	maxSpeed 	10.499994279805
scalar LocScenario.node[26].veinsmobility 	totalDistance 	2392.3581814108
scalar LocScenario.node[26].veinsmobility 	totalCO2Emission 	393.21463815074
scalar LocScenario.node[33].appl 	generatedWSMs 	0
scalar LocScenario.node[33].appl 	receivedWSMs 	0
scalar LocScenario.node[33].appl 	generatedBSMs 	2040
scalar LocScenario.node[33].appl 	receivedBSMs 	15131
scalar LocScenario.node[33].appl 	generatedWSAs 	0
scalar LocScenario.node[33].appl 	receivedWSAs 	0
scalar LocScenario.node[33].appl 	rmseSUMGPS 	804127.13860761
scalar LocScenario.node[33].appl 	rmseSUMCP 	660023.66610232
scalar LocScenario.node[33].appl 	delaySum 	1.7463749311605
scalar LocScenario.node[33].nic.phy80211p 	busyTime 	0.0077138431372574
scalar LocScenario.node[33].nic.mac1609_4 	ReceivedUnicastPackets 	0
scalar LocScenario.node[33].nic.mac1609_4 	ReceivedBroadcasts 	15131
scalar LocScenario.node[33].nic.mac1609_4 	SentPackets 	2040
scalar LocScenario.node[33].nic.mac1609_4 	SNIRLostPackets 	0
scalar LocScenario.node[33].nic.mac1609_4 	RXTXLostPackets 	0
scalar LocScenario.node[33].nic.mac1609_4 	TotalLostPackets 	0
scalar LocScenario.node[33].nic.mac1609_4 	DroppedPacketsInMac 	0
scalar LocScenario.node[33].nic.mac1609_4 	TooLittleTime 	0
scalar LocScenario.node[33].nic.mac1609_4 	TimesIntoBackoff 	2040
scalar LocScenario.node[33].nic.mac1609_4 	SlotsBackoff 	3092
scalar LocScenario.node[33].nic.mac1609_4 	NumInternalContention 	0
scalar LocScenario.node[33].nic.mac1609_4 	totalBusyTime 	1.787824
scalar LocScenario.node[33].veinsmobility 	startTime 	160.1
scalar LocScenario.node[33].veinsmobility 	totalTime 	203.9
scalar LocScenario.node[33].veinsmobility 	stopTime 	364.1
scalar LocScenario.node[33].veinsmobility 	minSpeed 	10.450001014583
scalar LocScenario.node[33].veinsmobility 	maxSpeed 	10.499961827439
scalar LocScenario.node[33].veinsmobility 	totalDistance 	2133.8087830228
scalar LocScenario.node[33].veinsmobility 	totalCO2Emission 	352.19258980139
scalar LocScenario.node[28].appl 	generatedWSMs 	0
scalar LocScenario.node[28].appl 	receivedWSMs 	0
scalar LocScenario.node[28].appl 	generatedBSMs 	2281
scalar LocScenario.node[28].appl 	receivedBSMs 	15983
scalar LocScenario.node[28].appl 	generatedWSAs 	0
scalar LocScenario.node[28].appl 	receivedWSAs 	0
scalar LocScenario.node[28].appl 	rmseSUMGPS 	56955.130504824
scalar LocScenario.node[28].appl 	rmseSUMCP 	635039.7047158
scalar LocScenario.node[28].appl 	delaySum 	1.790439912286
scalar LocScenario.node[28].nic.phy80211p 	busyTime 	0.0072872950460351
scalar LocScenario.node[28].nic.mac1609_4 	ReceivedUnicastPackets 	0
scalar LocScenario.node[28].nic.mac1609_4 	ReceivedBroadcasts 	15983
scalar LocScenario.node[28].nic.mac1609_4 	SentPackets 	2281
scalar LocScenario.node[28].nic.mac1609_4 	SNIRLostPackets 	0
scalar LocScenario.node[28].nic.mac1609_4 	RXTXLostPackets 	0
scalar LocScenario.node[28].nic.mac1609_4 	TotalLostPackets 	0
scalar LocScenario.node[28].nic.mac1609_4 	DroppedPacketsInMac 	0
scalar LocScenario.node[28].nic.mac1609_4 	TooLittleTime 	0
scalar LocScenario.node[28].nic.mac1609_4 	TimesIntoBackoff 	2281
scalar LocScenario.node[28].nic.mac1609_4 	SlotsBackoff 	3299
scalar LocScenario.node[28].nic.mac1609_4 	NumInternalContention 	0
scalar LocScenario.node[28].nic.mac1609_4 	totalBusyTime 	1.901737
scalar LocScenario.node[28].veinsmobility 	startTime 	140.1
scalar LocScenario.node[28].veinsmobility 	totalTime 	228
scalar LocScenario.node[28].veinsmobility 	stopTime 	368.2
scalar LocScenario.node[28].veinsmobility 	minSpeed 	10.450000371539
scalar LocScenario.node[28].veinsmobility 	maxSpeed 	10.499987724517
scalar LocScenario.node[28].veinsmobility 	totalDistance 	2392.3967328534
scalar LocScenario.node[28].veinsmobility 	totalCO2Emission 	393.5529428845
scalar LocScenario.node[35].appl 	generatedWSMs 	0
scalar LocScenario.node[35].appl 	receivedWSMs 	0
scalar LocScenario.node[35].appl 	generatedBSMs 	2040
scalar LocScenario.node[35].appl 	receivedBSMs 	15322
scalar LocScenario.node[35].appl 	generatedWSAs 	0
scalar LocScenario.node[35].appl 	receivedWSAs 	0
scalar LocScenario.node[35].appl 	rmseSUMGPS 	772494.28916647
scalar LocScenario.node[35].appl 	rmseSUMCP 	633803.5503265
scalar LocScenario.node[35].appl 	delaySum 	1.7675096047869
scalar LocScenario.node[35].nic.phy80211p 	busyTime 	0.0078112156862772
scalar LocScenario.node[35].nic.mac1609_4 	ReceivedUnicastPackets 	0
scalar LocScenario.node[35].nic.mac1609_4 	ReceivedBroadcasts 	15322
scalar LocScenario.node[35].nic.mac1609_4 	SentPackets 	2040
scalar LocScenario.node[35].nic.mac1609_4 	SNIRLostPackets 	0
scalar LocScenario.node[35].nic.mac1609_4 	RXTXLostPackets 	0
scalar LocScenario.node[35].nic.mac1609_4 	TotalLostPackets 	0
scalar LocScenario.node[35].nic.mac1609_4 	DroppedPacketsInMac 	0
scalar LocScenario.node[35].nic.mac1609_4 	TooLittleTime 	0
scalar LocScenario.node[35].nic.mac1609_4 	TimesIntoBackoff 	2040
scalar LocScenario.node[35].nic.mac1609_4 	SlotsBackoff 	3101
scalar LocScenario.node[35].nic.mac1609_4 	NumInternalContention 	0
scalar LocScenario.node[35].nic.mac1609_4 	totalBusyTime 	1.807688
scalar LocScenario.node[35].veinsmobility 	startTime 	170.1
scalar LocScenario.node[35].veinsmobility 	totalTime 	203.9
scalar LocScenario.node[35].veinsmobility 	stopTime 	374.1
scalar LocScenario.node[35].veinsmobility 	minSpeed 	10.450021469651
scalar LocScenario.node[35].veinsmobility 	maxSpeed 	10.499993920652
scalar LocScenario.node[35].veinsmobility 	totalDistance 	2138.7375794162
scalar LocScenario.node[35].veinsmobility 	totalCO2Emission 	351.79785717179
scalar LocScenario.node[30].appl 	generatedWSMs 	0
scalar LocScenario.node[30].appl 	receivedWSMs 	0
scalar LocScenario.node[30].appl 	generatedBSMs 	2281
scalar LocScenario.node[30].appl 	receivedBSMs 	16205
scalar LocScenario.node[30].appl 	generatedWSAs 	0
scalar LocScenario.node[30].appl 	receivedWSAs 	0
scalar LocScenario.node[30].appl 	rmseSUMGPS 	32665.645185409
scalar LocScenario.node[30].appl 	rmseSUMCP 	663019.74605768
scalar LocScenario.node[30].appl 	delaySum 	1.8151060453079
scalar LocScenario.node[30].nic.phy80211p 	busyTime 	0.0073885138097353
scalar LocScenario.node[30].nic.mac1609_4 	ReceivedUnicastPackets 	0
scalar LocScenario.node[30].nic.mac1609_4 	ReceivedBroadcasts 	16205
scalar LocScenario.node[30].nic.mac1609_4 	SentPackets 	2281
scalar LocScenario.node[30].nic.mac1609_4 	SNIRLostPackets 	0
scalar LocScenario.node[30].nic.mac1609_4 	RXTXLostPackets 	0
scalar LocScenario.node[30].nic.mac1609_4 	TotalLostPackets 	0
scalar LocScenario.node[30].nic.mac1609_4 	DroppedPacketsInMac 	0
scalar LocScenario.node[30].nic.mac1609_4 	TooLittleTime 	0
scalar LocScenario.node[30].nic.mac1609_4 	TimesIntoBackoff 	2281
scalar LocScenario.node[30].nic.mac1609_4 	SlotsBackoff 	3454
scalar LocScenario.node[30].nic.mac1609_4 	NumInternalContention 	0
scalar LocScenario.node[30].nic.mac1609_4 	totalBusyTime 	1.924825
scalar LocScenario.node[30].veinsmobility 	startTime 	150.1
scalar LocScenario.node[30].veinsmobility 	totalTime 	228
scalar LocScenario.node[30].veinsmobility 	stopTime 	378.2
scalar LocScenario.node[30].veinsmobility 	minSpeed 	10.45004772197
scalar LocScenario.node[30].veinsmobility 	maxSpeed 	10.499992089649
scalar LocScenario.node[30].veinsmobility 	totalDistance 	2394.8387462828
scalar LocScenario.node[30].veinsmobility 	totalCO2Emission 	393.46080365457
scalar LocScenario.node[37].appl 	generatedWSMs 	0
scalar LocScenario.node[37].appl 	receivedWSMs 	0
scalar LocScenario.node[37].appl 	generatedBSMs 	2040
scalar LocScenario.node[37].appl 	receivedBSMs 	15529
scalar LocScenario.node[37].appl 	generatedWSAs 	0
scalar LocScenario.node[37].appl 	receivedWSAs 	0
scalar LocScenario.node[37].appl 	rmseSUMGPS 	756270.80161929
scalar LocScenario.node[37].appl 	rmseSUMCP 	632424.96905383
scalar LocScenario.node[37].appl 	delaySum 	1.791713340397
scalar LocScenario.node[37].nic.phy80211p 	busyTime 	0.007916745098042
scalar LocScenario.node[37].nic.mac1609_4 	ReceivedUnicastPackets 	0
scalar LocScenario.node[37].nic.mac1609_4 	ReceivedBroadcasts 	15529
scalar LocScenario.node[37].nic.mac1609_4 	SentPackets 	2040
scalar LocScenario.node[37].nic.mac1609_4 	SNIRLostPackets 	0
scalar LocScenario.node[37].nic.mac1609_4 	RXTXLostPackets 	0
scalar LocScenario.node[37].nic.mac1609_4 	TotalLostPackets 	0
scalar LocScenario.node[37].nic.mac1609_4 	DroppedPacketsInMac 	0
scalar LocScenario.node[37].nic.mac1609_4 	TooLittleTime 	0
scalar LocScenario.node[37].nic.mac1609_4 	TimesIntoBackoff 	2040
scalar LocScenario.node[37].nic.mac1609_4 	SlotsBackoff 	2991
scalar LocScenario.node[37].nic.mac1609_4 	NumInternalContention 	0
scalar LocScenario.node[37].nic.mac1609_4 	totalBusyTime 	1.829216
scalar LocScenario.node[37].veinsmobility 	startTime 	180.1
scalar LocScenario.node[37].veinsmobility 	totalTime 	203.9
scalar LocScenario.node[37].veinsmobility 	stopTime 	384.1
scalar LocScenario.node[37].veinsmobility 	minSpeed 	10.450015414122
scalar LocScenario.node[37].veinsmobility 	maxSpeed 	10.499987023661
scalar LocScenario.node[37].veinsmobility 	totalDistance 	2133.7659396586
scalar LocScenario.node[37].veinsmobility 	totalCO2Emission 	351.95864135479
scalar LocScenario.node[32].appl 	generatedWSMs 	0
scalar LocScenario.node[32].appl 	receivedWSMs 	0
scalar LocScenario.node[32].appl 	generatedBSMs 	2281
scalar LocScenario.node[32].appl 	receivedBSMs 	16415
scalar LocScenario.node[32].appl 	generatedWSAs 	0
scalar LocScenario.node[32].appl 	receivedWSAs 	0
scalar LocScenario.node[32].appl 	rmseSUMGPS 	648859.57670991
scalar LocScenario.node[32].appl 	rmseSUMCP 	649096.46868134
scalar LocScenario.node[32].appl 	delaySum 	1.839905561513
scalar LocScenario.node[32].nic.phy80211p 	busyTime 	0.0074842612889112
scalar LocScenario.node[32].nic.mac1609_4 	ReceivedUnicastPackets 	0
scalar LocScenario.node[32].nic.mac1609_4 	ReceivedBroadcasts 	16415
scalar LocScenario.node[32].nic.mac1609_4 	SentPackets 	2281
scalar LocScenario.node[32].nic.mac1609_4 	SNIRLostPackets 	0
scalar LocScenario.node[32].nic.mac1609_4 	RXTXLostPackets 	0
scalar LocScenario.node[32].nic.mac1609_4 	TotalLostPackets 	0
scalar LocScenario.node[32].nic.mac1609_4 	DroppedPacketsInMac 	0
scalar LocScenario.node[32].nic.mac1609_4 	TooLittleTime 	0
scalar LocScenario.node[32].nic.mac1609_4 	TimesIntoBackoff 	2281
scalar LocScenario.node[32].nic.mac1609_4 	SlotsBackoff 	3406
scalar LocScenario.node[32].nic.mac1609_4 	NumInternalContention 	0
scalar LocScenario.node[32].nic.mac1609_4 	totalBusyTime 	1.946665
scalar LocScenario.node[32].veinsmobility 	startTime 	160.1
scalar LocScenario.node[32].veinsmobility 	totalTime 	228
scalar LocScenario.node[32].veinsmobility 	stopTime 	388.2
scalar LocScenario.node[32].veinsmobility 	minSpeed 	10.450008360227
scalar LocScenario.node[32].veinsmobility 	maxSpeed 	10.499985389365
scalar LocScenario.node[32].veinsmobility 	totalDistance 	2388.5918457689
scalar LocScenario.node[32].veinsmobility 	totalCO2Emission 	392.61991034897
scalar LocScenario.node[39].appl 	generatedWSMs 	0
scalar LocScenario.node[39].appl 	receivedWSMs 	0
scalar LocScenario.node[39].appl 	generatedBSMs 	2040
scalar LocScenario.node[39].appl 	receivedBSMs 	15680
scalar LocScenario.node[39].appl 	generatedWSAs 	0
scalar LocScenario.node[39].appl 	receivedWSAs 	0
scalar LocScenario.node[39].appl 	rmseSUMGPS 	906656.51809207
scalar LocScenario.node[39].appl 	rmseSUMCP 	634491.06989524
scalar LocScenario.node[39].appl 	delaySum 	1.8058758202454
scalar LocScenario.node[39].nic.phy80211p 	busyTime 	0.0079937254901989
scalar LocScenario.node[39].nic.mac1609_4 	ReceivedUnicastPackets 	0
scalar LocScenario.node[39].nic.mac1609_4 	ReceivedBroadcasts 	15680
scalar LocScenario.node[39].nic.mac1609_4 	SentPackets 	2040
scalar LocScenario.node[39].nic.mac1609_4 	SNIRLostPackets 	0
scalar LocScenario.node[39].nic.mac1609_4 	RXTXLostPackets 	0
scalar LocScenario.node[39].nic.mac1609_4 	TotalLostPackets 	0
scalar LocScenario.node[39].nic.mac1609_4 	DroppedPacketsInMac 	0
scalar LocScenario.node[39].nic.mac1609_4 	TooLittleTime 	0
scalar LocScenario.node[39].nic.mac1609_4 	TimesIntoBackoff 	2040
scalar LocScenario.node[39].nic.mac1609_4 	SlotsBackoff 	2997
scalar LocScenario.node[39].nic.mac1609_4 	NumInternalContention 	0
scalar LocScenario.node[39].nic.mac1609_4 	totalBusyTime 	1.84492
scalar LocScenario.node[39].veinsmobility 	startTime 	190.1
scalar LocScenario.node[39].veinsmobility 	totalTime 	203.9
scalar LocScenario.node[39].veinsmobility 	stopTime 	394.1
scalar LocScenario.node[39].veinsmobility 	minSpeed 	10.450004142849
scalar LocScenario.node[39].veinsmobility 	maxSpeed 	10.49996412216
scalar LocScenario.node[39].veinsmobility 	totalDistance 	2138.8806428027
scalar LocScenario.node[39].veinsmobility 	totalCO2Emission 	351.59130857732
scalar LocScenario.node[34].appl 	generatedWSMs 	0
scalar LocScenario.node[34].appl 	receivedWSMs 	0
scalar LocScenario.node[34].appl 	generatedBSMs 	2281
scalar LocScenario.node[34].appl 	receivedBSMs 	16632
scalar LocScenario.node[34].appl 	generatedWSAs 	0
scalar LocScenario.node[34].appl 	receivedWSAs 	0
scalar LocScenario.node[34].appl 	rmseSUMGPS 	443800.42648411
scalar LocScenario.node[34].appl 	rmseSUMCP 	647838.1773856
scalar LocScenario.node[34].appl 	delaySum 	1.8643467143696
scalar LocScenario.node[34].nic.phy80211p 	busyTime 	0.0075832003507263
scalar LocScenario.node[34].nic.mac1609_4 	ReceivedUnicastPackets 	0
scalar LocScenario.node[34].nic.mac1609_4 	ReceivedBroadcasts 	16632
scalar LocScenario.node[34].nic.mac1609_4 	SentPackets 	2281
scalar LocScenario.node[34].nic.mac1609_4 	SNIRLostPackets 	0
scalar LocScenario.node[34].nic.mac1609_4 	RXTXLostPackets 	0
scalar LocScenario.node[34].nic.mac1609_4 	TotalLostPackets 	0
scalar LocScenario.node[34].nic.mac1609_4 	DroppedPacketsInMac 	0
scalar LocScenario.node[34].nic.mac1609_4 	TooLittleTime 	0
scalar LocScenario.node[34].nic.mac1609_4 	TimesIntoBackoff 	2281
scalar LocScenario.node[34].nic.mac1609_4 	SlotsBackoff 	3450
scalar LocScenario.node[34].nic.mac1609_4 	NumInternalContention 	0
scalar LocScenario.node[34].nic.mac1609_4 	totalBusyTime 	1.969233
scalar LocScenario.node[34].veinsmobility 	startTime 	170.1
scalar LocScenario.node[34].veinsmobility 	totalTime 	228
scalar LocScenario.node[34].veinsmobility 	stopTime 	398.2
scalar LocScenario.node[34].veinsmobility 	minSpeed 	10.450000977039
scalar LocScenario.node[34].veinsmobility 	maxSpeed 	10.49998500254
scalar LocScenario.node[34].veinsmobility 	totalDistance 	2388.6764030264
scalar LocScenario.node[34].veinsmobility 	totalCO2Emission 	393.03616622317
scalar LocScenario.node[41].appl 	generatedWSMs 	0
scalar LocScenario.node[41].appl 	receivedWSMs 	0
scalar LocScenario.node[41].appl 	generatedBSMs 	2040
scalar LocScenario.node[41].appl 	receivedBSMs 	15819
scalar LocScenario.node[41].appl 	generatedWSAs 	0
scalar LocScenario.node[41].appl 	receivedWSAs 	0
scalar LocScenario.node[41].appl 	rmseSUMGPS 	1046185.470724
scalar LocScenario.node[41].appl 	rmseSUMCP 	643630.42769201
scalar LocScenario.node[41].appl 	delaySum 	1.8189101492412
scalar LocScenario.node[41].nic.phy80211p 	busyTime 	0.008068156862748
scalar LocScenario.node[41].nic.mac1609_4 	ReceivedUnicastPackets 	0
scalar LocScenario.node[41].nic.mac1609_4 	ReceivedBroadcasts 	15819
scalar LocScenario.node[41].nic.mac1609_4 	SentPackets 	2040
scalar LocScenario.node[41].nic.mac1609_4 	SNIRLostPackets 	7
scalar LocScenario.node[41].nic.mac1609_4 	RXTXLostPackets 	0
scalar LocScenario.node[41].nic.mac1609_4 	TotalLostPackets 	7
scalar LocScenario.node[41].nic.mac1609_4 	DroppedPacketsInMac 	0
scalar LocScenario.node[41].nic.mac1609_4 	TooLittleTime 	0
scalar LocScenario.node[41].nic.mac1609_4 	TimesIntoBackoff 	2040
scalar LocScenario.node[41].nic.mac1609_4 	SlotsBackoff 	3119
scalar LocScenario.node[41].nic.mac1609_4 	NumInternalContention 	0
scalar LocScenario.node[41].nic.mac1609_4 	totalBusyTime 	1.860104
scalar LocScenario.node[41].veinsmobility 	startTime 	200.1
scalar LocScenario.node[41].veinsmobility 	totalTime 	203.9
scalar LocScenario.node[41].veinsmobility 	stopTime 	404.1
scalar LocScenario.node[41].veinsmobility 	minSpeed 	10.450034618005
scalar LocScenario.node[41].veinsmobility 	maxSpeed 	10.499981830164
scalar LocScenario.node[41].veinsmobility 	totalDistance 	2138.7126684116
scalar LocScenario.node[41].veinsmobility 	totalCO2Emission 	351.49139192409
scalar LocScenario.node[36].appl 	generatedWSMs 	0
scalar LocScenario.node[36].appl 	receivedWSMs 	0
scalar LocScenario.node[36].appl 	generatedBSMs 	2281
scalar LocScenario.node[36].appl 	receivedBSMs 	16846
scalar LocScenario.node[36].appl 	generatedWSAs 	0
scalar LocScenario.node[36].appl 	receivedWSAs 	0
scalar LocScenario.node[36].appl 	rmseSUMGPS 	874163.47278008
scalar LocScenario.node[36].appl 	rmseSUMCP 	645658.34699542
scalar LocScenario.node[36].appl 	delaySum 	4.7802419384537e+183
scalar LocScenario.node[36].nic.phy80211p 	busyTime 	0.0076807715914103
scalar LocScenario.node[36].nic.mac1609_4 	ReceivedUnicastPackets 	0
scalar LocScenario.node[36].nic.mac1609_4 	ReceivedBroadcasts 	16846
scalar LocScenario.node[36].nic.mac1609_4 	SentPackets 	2281
scalar LocScenario.node[36].nic.mac1609_4 	SNIRLostPackets 	0
scalar LocScenario.node[36].nic.mac1609_4 	RXTXLostPackets 	0
scalar LocScenario.node[36].nic.mac1609_4 	TotalLostPackets 	0
scalar LocScenario.node[36].nic.mac1609_4 	DroppedPacketsInMac 	0
scalar LocScenario.node[36].nic.mac1609_4 	TooLittleTime 	0
scalar LocScenario.node[36].nic.mac1609_4 	TimesIntoBackoff 	2281
scalar LocScenario.node[36].nic.mac1609_4 	SlotsBackoff 	3377
scalar LocScenario.node[36].nic.mac1609_4 	NumInternalContention 	0
scalar LocScenario.node[36].nic.mac1609_4 	totalBusyTime 	1.991489
scalar LocScenario.node[36].veinsmobility 	startTime 	180.1
scalar LocScenario.node[36].veinsmobility 	totalTime 	228
scalar LocScenario.node[36].veinsmobility 	stopTime 	408.2
scalar LocScenario.node[36].veinsmobility 	minSpeed 	10.45000639197
scalar LocScenario.node[36].veinsmobility 	maxSpeed 	10.499959439132
scalar LocScenario.node[36].veinsmobility 	totalDistance 	2388.7033603845
scalar LocScenario.node[36].veinsmobility 	totalCO2Emission 	393.65348068797
scalar LocScenario.node[43].appl 	generatedWSMs 	0
scalar LocScenario.node[43].appl 	receivedWSMs 	0
scalar LocScenario.node[43].appl 	generatedBSMs 	2040
scalar LocScenario.node[43].appl 	receivedBSMs 	15879
scalar LocScenario.node[43].appl 	generatedWSAs 	0
scalar LocScenario.node[43].appl 	receivedWSAs 	0
scalar LocScenario.node[43].appl 	rmseSUMGPS 	328501.2480768
scalar LocScenario.node[43].appl 	rmseSUMCP 	619882.64968886
scalar LocScenario.node[43].appl 	delaySum 	1.8302276029741
scalar LocScenario.node[43].nic.phy80211p 	busyTime 	0.0081120000000029
scalar LocScenario.node[43].nic.mac1609_4 	ReceivedUnicastPackets 	0
scalar LocScenario.node[43].nic.mac1609_4 	ReceivedBroadcasts 	15879
scalar LocScenario.node[43].nic.mac1609_4 	SentPackets 	2040
scalar LocScenario.node[43].nic.mac1609_4 	SNIRLostPackets 	33
scalar LocScenario.node[43].nic.mac1609_4 	RXTXLostPackets 	0
scalar LocScenario.node[43].nic.mac1609_4 	TotalLostPackets 	33
scalar LocScenario.node[43].nic.mac1609_4 	DroppedPacketsInMac 	0
scalar LocScenario.node[43].nic.mac1609_4 	TooLittleTime 	0
scalar LocScenario.node[43].nic.mac1609_4 	TimesIntoBackoff 	2040
scalar LocScenario.node[43].nic.mac1609_4 	SlotsBackoff 	3020
scalar LocScenario.node[43].nic.mac1609_4 	NumInternalContention 	0
scalar LocScenario.node[43].nic.mac1609_4 	totalBusyTime 	1.869048
scalar LocScenario.node[43].veinsmobility 	startTime 	210.1
scalar LocScenario.node[43].veinsmobility 	totalTime 	203.9
scalar LocScenario.node[43].veinsmobility 	stopTime 	414.1
scalar LocScenario.node[43].veinsmobility 	minSpeed 	10.450003026705
scalar LocScenario.node[43].veinsmobility 	maxSpeed 	10.499987026257
scalar LocScenario.node[43].veinsmobility 	totalDistance 	2138.7992324939
scalar LocScenario.node[43].veinsmobility 	totalCO2Emission 	352.25657759746
scalar LocScenario.node[38].appl 	generatedWSMs 	0
scalar LocScenario.node[38].appl 	receivedWSMs 	0
scalar LocScenario.node[38].appl 	generatedBSMs 	2281
scalar LocScenario.node[38].appl 	receivedBSMs 	16984
scalar LocScenario.node[38].appl 	generatedWSAs 	0
scalar LocScenario.node[38].appl 	receivedWSAs 	0
scalar LocScenario.node[38].appl 	rmseSUMGPS 	70253.299906294
scalar LocScenario.node[38].appl 	rmseSUMCP 	678302.87043922
scalar LocScenario.node[38].appl 	delaySum 	1.9026642103842
scalar LocScenario.node[38].nic.phy80211p 	busyTime 	0.0077436913634402
scalar LocScenario.node[38].nic.mac1609_4 	ReceivedUnicastPackets 	0
scalar LocScenario.node[38].nic.mac1609_4 	ReceivedBroadcasts 	16984
scalar LocScenario.node[38].nic.mac1609_4 	SentPackets 	2281
scalar LocScenario.node[38].nic.mac1609_4 	SNIRLostPackets 	0
scalar LocScenario.node[38].nic.mac1609_4 	RXTXLostPackets 	0
scalar LocScenario.node[38].nic.mac1609_4 	TotalLostPackets 	0
scalar LocScenario.node[38].nic.mac1609_4 	DroppedPacketsInMac 	0
scalar LocScenario.node[38].nic.mac1609_4 	TooLittleTime 	0
scalar LocScenario.node[38].nic.mac1609_4 	TimesIntoBackoff 	2281
scalar LocScenario.node[38].nic.mac1609_4 	SlotsBackoff 	3443
scalar LocScenario.node[38].nic.mac1609_4 	NumInternalContention 	0
scalar LocScenario.node[38].nic.mac1609_4 	totalBusyTime 	2.005841
scalar LocScenario.node[38].veinsmobility 	startTime 	190.1
scalar LocScenario.node[38].veinsmobility 	totalTime 	228
scalar LocScenario.node[38].veinsmobility 	stopTime 	418.2
scalar LocScenario.node[38].veinsmobility 	minSpeed 	10.450018754101
scalar LocScenario.node[38].veinsmobility 	maxSpeed 	10.499993815657
scalar LocScenario.node[38].veinsmobility 	totalDistance 	2394.6494984256
scalar LocScenario.node[38].veinsmobility 	totalCO2Emission 	393.07895429152
scalar LocScenario.node[45].appl 	generatedWSMs 	0
scalar LocScenario.node[45].appl 	receivedWSMs 	0
scalar LocScenario.node[45].appl 	generatedBSMs 	2040
scalar LocScenario.node[45].appl 	receivedBSMs 	15423
scalar LocScenario.node[45].appl 	generatedWSAs 	0
scalar LocScenario.node[45].appl 	receivedWSAs 	0
scalar LocScenario.node[45].appl 	rmseSUMGPS 	641344.02722353
scalar LocScenario.node[45].appl 	rmseSUMCP 	633097.05626376
scalar LocScenario.node[45].appl 	delaySum 	1.7766730596516
scalar LocScenario.node[45].nic.phy80211p 	busyTime 	0.0081436078431402
scalar LocScenario.node[45].nic.mac1609_4 	ReceivedUnicastPackets 	0
scalar LocScenario.node[45].nic.mac1609_4 	ReceivedBroadcasts 	15423
scalar LocScenario.node[45].nic.mac1609_4 	SentPackets 	2040
scalar LocScenario.node[45].nic.mac1609_4 	SNIRLostPackets 	551
scalar LocScenario.node[45].nic.mac1609_4 	RXTXLostPackets 	0
scalar LocScenario.node[45].nic.mac1609_4 	TotalLostPackets 	551
scalar LocScenario.node[45].nic.mac1609_4 	DroppedPacketsInMac 	0
scalar LocScenario.node[45].nic.mac1609_4 	TooLittleTime 	0
scalar LocScenario.node[45].nic.mac1609_4 	TimesIntoBackoff 	2040
[...]
scalar LocScenario.node[586].veinsmobility 	stopTime 	3158.2
scalar LocScenario.node[586].veinsmobility 	minSpeed 	10.450005732407
scalar LocScenario.node[586].veinsmobility 	maxSpeed 	10.499992191896
scalar LocScenario.node[586].veinsmobility 	totalDistance 	2388.8112665152
scalar LocScenario.node[586].veinsmobility 	totalCO2Emission 	394.05146955854
scalar LocScenario.node[593].appl 	generatedWSMs 	0
scalar LocScenario.node[593].appl 	receivedWSMs 	0
scalar LocScenario.node[593].appl 	generatedBSMs 	2040
scalar LocScenario.node[593].appl 	receivedBSMs 	12495
scalar LocScenario.node[593].appl 	generatedWSAs 	0
scalar LocScenario.node[593].appl 	receivedWSAs 	0
scalar LocScenario.node[593].appl 	rmseSUMGPS 	319094.95150212
scalar LocScenario.node[593].appl 	rmseSUMCP 	1086326.1138899
scalar LocScenario.node[593].appl 	delaySum 	22.117178893548
scalar LocScenario.node[593].nic.phy80211p 	busyTime 	0.0063852941176483
scalar LocScenario.node[593].nic.mac1609_4 	ReceivedUnicastPackets 	0
scalar LocScenario.node[593].nic.mac1609_4 	ReceivedBroadcasts 	12495
scalar LocScenario.node[593].nic.mac1609_4 	SentPackets 	2040
scalar LocScenario.node[593].nic.mac1609_4 	SNIRLostPackets 	30
scalar LocScenario.node[593].nic.mac1609_4 	RXTXLostPackets 	0
scalar LocScenario.node[593].nic.mac1609_4 	TotalLostPackets 	30
scalar LocScenario.node[593].nic.mac1609_4 	DroppedPacketsInMac 	0
scalar LocScenario.node[593].nic.mac1609_4 	TooLittleTime 	0
scalar LocScenario.node[593].nic.mac1609_4 	TimesIntoBackoff 	2040
scalar LocScenario.node[593].nic.mac1609_4 	SlotsBackoff 	3110
scalar LocScenario.node[593].nic.mac1609_4 	NumInternalContention 	0
scalar LocScenario.node[593].nic.mac1609_4 	totalBusyTime 	1.5168
scalar LocScenario.node[593].veinsmobility 	startTime 	2960.1
scalar LocScenario.node[593].veinsmobility 	totalTime 	203.9
scalar LocScenario.node[593].veinsmobility 	stopTime 	3164.1
scalar LocScenario.node[593].veinsmobility 	minSpeed 	10.450004760444
scalar LocScenario.node[593].veinsmobility 	maxSpeed 	10.499993006047
scalar LocScenario.node[593].veinsmobility 	totalDistance 	2138.8007290633
scalar LocScenario.node[593].veinsmobility 	totalCO2Emission 	351.96960243956
scalar LocScenario.node[588].appl 	generatedWSMs 	0
scalar LocScenario.node[588].appl 	receivedWSMs 	0
scalar LocScenario.node[588].appl 	generatedBSMs 	2281
scalar LocScenario.node[588].appl 	receivedBSMs 	13734
scalar LocScenario.node[588].appl 	generatedWSAs 	0
scalar LocScenario.node[588].appl 	receivedWSAs 	0
scalar LocScenario.node[588].appl 	rmseSUMGPS 	69582.112477092
scalar LocScenario.node[588].appl 	rmseSUMCP 	31676816.747272
scalar LocScenario.node[588].appl 	delaySum 	9.0094040619829
scalar LocScenario.node[588].nic.phy80211p 	busyTime 	0.0062992722490153
scalar LocScenario.node[588].nic.mac1609_4 	ReceivedUnicastPackets 	0
scalar LocScenario.node[588].nic.mac1609_4 	ReceivedBroadcasts 	13734
scalar LocScenario.node[588].nic.mac1609_4 	SentPackets 	2281
scalar LocScenario.node[588].nic.mac1609_4 	SNIRLostPackets 	82
scalar LocScenario.node[588].nic.mac1609_4 	RXTXLostPackets 	0
scalar LocScenario.node[588].nic.mac1609_4 	TotalLostPackets 	82
scalar LocScenario.node[588].nic.mac1609_4 	DroppedPacketsInMac 	0
scalar LocScenario.node[588].nic.mac1609_4 	TooLittleTime 	0
scalar LocScenario.node[588].nic.mac1609_4 	TimesIntoBackoff 	2281
scalar LocScenario.node[588].nic.mac1609_4 	SlotsBackoff 	3373
scalar LocScenario.node[588].nic.mac1609_4 	NumInternalContention 	0
scalar LocScenario.node[588].nic.mac1609_4 	totalBusyTime 	1.671169
scalar LocScenario.node[588].veinsmobility 	startTime 	2940.1
scalar LocScenario.node[588].veinsmobility 	totalTime 	228
scalar LocScenario.node[588].veinsmobility 	stopTime 	3168.2
scalar LocScenario.node[588].veinsmobility 	minSpeed 	10.450038167252
scalar LocScenario.node[588].veinsmobility 	maxSpeed 	10.499994310539
scalar LocScenario.node[588].veinsmobility 	totalDistance 	2394.8527481711
scalar LocScenario.node[588].veinsmobility 	totalCO2Emission 	393.70519576928
scalar LocScenario.node[595].appl 	generatedWSMs 	0
scalar LocScenario.node[595].appl 	receivedWSMs 	0
scalar LocScenario.node[595].appl 	generatedBSMs 	2040
scalar LocScenario.node[595].appl 	receivedBSMs 	12311
scalar LocScenario.node[595].appl 	generatedWSAs 	0
scalar LocScenario.node[595].appl 	receivedWSAs 	0
scalar LocScenario.node[595].appl 	rmseSUMGPS 	643559.14494412
scalar LocScenario.node[595].appl 	rmseSUMCP 	1115307.8444798
scalar LocScenario.node[595].appl 	delaySum 	12.471099380767
scalar LocScenario.node[595].nic.phy80211p 	busyTime 	0.006276705882354
scalar LocScenario.node[595].nic.mac1609_4 	ReceivedUnicastPackets 	0
scalar LocScenario.node[595].nic.mac1609_4 	ReceivedBroadcasts 	12311
scalar LocScenario.node[595].nic.mac1609_4 	SentPackets 	2040
scalar LocScenario.node[595].nic.mac1609_4 	SNIRLostPackets 	1
scalar LocScenario.node[595].nic.mac1609_4 	RXTXLostPackets 	0
scalar LocScenario.node[595].nic.mac1609_4 	TotalLostPackets 	1
scalar LocScenario.node[595].nic.mac1609_4 	DroppedPacketsInMac 	0
scalar LocScenario.node[595].nic.mac1609_4 	TooLittleTime 	0
scalar LocScenario.node[595].nic.mac1609_4 	TimesIntoBackoff 	2040
scalar LocScenario.node[595].nic.mac1609_4 	SlotsBackoff 	3033
scalar LocScenario.node[595].nic.mac1609_4 	NumInternalContention 	0
scalar LocScenario.node[595].nic.mac1609_4 	totalBusyTime 	1.494648
scalar LocScenario.node[595].veinsmobility 	startTime 	2970.1
scalar LocScenario.node[595].veinsmobility 	totalTime 	203.9
scalar LocScenario.node[595].veinsmobility 	stopTime 	3174.1
scalar LocScenario.node[595].veinsmobility 	minSpeed 	10.450030416599
scalar LocScenario.node[595].veinsmobility 	maxSpeed 	10.499999839871
scalar LocScenario.node[595].veinsmobility 	totalDistance 	2133.7466648733
scalar LocScenario.node[595].veinsmobility 	totalCO2Emission 	351.94993268589
scalar LocScenario.node[590].appl 	generatedWSMs 	0
scalar LocScenario.node[590].appl 	receivedWSMs 	0
scalar LocScenario.node[590].appl 	generatedBSMs 	2281
scalar LocScenario.node[590].appl 	receivedBSMs 	13593
scalar LocScenario.node[590].appl 	generatedWSAs 	0
scalar LocScenario.node[590].appl 	receivedWSAs 	0
scalar LocScenario.node[590].appl 	rmseSUMGPS 	50770.394627372
scalar LocScenario.node[590].appl 	rmseSUMCP 	38763433.500743
scalar LocScenario.node[590].appl 	delaySum 	20.254675614582
scalar LocScenario.node[590].nic.phy80211p 	busyTime 	0.006197597544938
scalar LocScenario.node[590].nic.mac1609_4 	ReceivedUnicastPackets 	0
scalar LocScenario.node[590].nic.mac1609_4 	ReceivedBroadcasts 	13593
scalar LocScenario.node[590].nic.mac1609_4 	SentPackets 	2281
scalar LocScenario.node[590].nic.mac1609_4 	SNIRLostPackets 	0
scalar LocScenario.node[590].nic.mac1609_4 	RXTXLostPackets 	0
scalar LocScenario.node[590].nic.mac1609_4 	TotalLostPackets 	0
scalar LocScenario.node[590].nic.mac1609_4 	DroppedPacketsInMac 	0
scalar LocScenario.node[590].nic.mac1609_4 	TooLittleTime 	0
scalar LocScenario.node[590].nic.mac1609_4 	TimesIntoBackoff 	2281
scalar LocScenario.node[590].nic.mac1609_4 	SlotsBackoff 	3435
scalar LocScenario.node[590].nic.mac1609_4 	NumInternalContention 	0
scalar LocScenario.node[590].nic.mac1609_4 	totalBusyTime 	1.653177
scalar LocScenario.node[590].veinsmobility 	startTime 	2950.1
scalar LocScenario.node[590].veinsmobility 	totalTime 	228
scalar LocScenario.node[590].veinsmobility 	stopTime 	3178.2
scalar LocScenario.node[590].veinsmobility 	minSpeed 	10.450026725268
scalar LocScenario.node[590].veinsmobility 	maxSpeed 	10.499960107065
scalar LocScenario.node[590].veinsmobility 	totalDistance 	2394.7514529689
scalar LocScenario.node[590].veinsmobility 	totalCO2Emission 	393.37559166214
scalar LocScenario.node[597].appl 	generatedWSMs 	0
scalar LocScenario.node[597].appl 	receivedWSMs 	0
scalar LocScenario.node[597].appl 	generatedBSMs 	2040
scalar LocScenario.node[597].appl 	receivedBSMs 	10362
scalar LocScenario.node[597].appl 	generatedWSAs 	0
scalar LocScenario.node[597].appl 	receivedWSAs 	0
scalar LocScenario.node[597].appl 	rmseSUMGPS 	714862.80865356
scalar LocScenario.node[597].appl 	rmseSUMCP 	2501583.2501288
scalar LocScenario.node[597].appl 	delaySum 	4.8590567934589
scalar LocScenario.node[597].nic.phy80211p 	busyTime 	0.0052825882352942
scalar LocScenario.node[597].nic.mac1609_4 	ReceivedUnicastPackets 	0
scalar LocScenario.node[597].nic.mac1609_4 	ReceivedBroadcasts 	10362
scalar LocScenario.node[597].nic.mac1609_4 	SentPackets 	2040
scalar LocScenario.node[597].nic.mac1609_4 	SNIRLostPackets 	0
scalar LocScenario.node[597].nic.mac1609_4 	RXTXLostPackets 	0
scalar LocScenario.node[597].nic.mac1609_4 	TotalLostPackets 	0
scalar LocScenario.node[597].nic.mac1609_4 	DroppedPacketsInMac 	0
scalar LocScenario.node[597].nic.mac1609_4 	TooLittleTime 	0
scalar LocScenario.node[597].nic.mac1609_4 	TimesIntoBackoff 	2040
scalar LocScenario.node[597].nic.mac1609_4 	SlotsBackoff 	3084
scalar LocScenario.node[597].nic.mac1609_4 	NumInternalContention 	0
scalar LocScenario.node[597].nic.mac1609_4 	totalBusyTime 	1.291848
scalar LocScenario.node[597].veinsmobility 	startTime 	2980.1
scalar LocScenario.node[597].veinsmobility 	totalTime 	203.9
scalar LocScenario.node[597].veinsmobility 	stopTime 	3184.1
scalar LocScenario.node[597].veinsmobility 	minSpeed 	10.450000639493
scalar LocScenario.node[597].veinsmobility 	maxSpeed 	10.499999263382
scalar LocScenario.node[597].veinsmobility 	totalDistance 	2138.7150402353
scalar LocScenario.node[597].veinsmobility 	totalCO2Emission 	351.91728831761
scalar LocScenario.node[592].appl 	generatedWSMs 	0
scalar LocScenario.node[592].appl 	receivedWSMs 	0
scalar LocScenario.node[592].appl 	generatedBSMs 	2281
scalar LocScenario.node[592].appl 	receivedBSMs 	13287
scalar LocScenario.node[592].appl 	generatedWSAs 	0
scalar LocScenario.node[592].appl 	receivedWSAs 	0
scalar LocScenario.node[592].appl 	rmseSUMGPS 	52728.359550443
scalar LocScenario.node[592].appl 	rmseSUMCP 	51149116.499451
scalar LocScenario.node[592].appl 	delaySum 	4.7917580042819e+17
scalar LocScenario.node[592].nic.phy80211p 	busyTime 	0.0060963787812378
scalar LocScenario.node[592].nic.mac1609_4 	ReceivedUnicastPackets 	0
scalar LocScenario.node[592].nic.mac1609_4 	ReceivedBroadcasts 	13287
scalar LocScenario.node[592].nic.mac1609_4 	SentPackets 	2281
scalar LocScenario.node[592].nic.mac1609_4 	SNIRLostPackets 	84
scalar LocScenario.node[592].nic.mac1609_4 	RXTXLostPackets 	0
scalar LocScenario.node[592].nic.mac1609_4 	TotalLostPackets 	84
scalar LocScenario.node[592].nic.mac1609_4 	DroppedPacketsInMac 	0
scalar LocScenario.node[592].nic.mac1609_4 	TooLittleTime 	0
scalar LocScenario.node[592].nic.mac1609_4 	TimesIntoBackoff 	2281
scalar LocScenario.node[592].nic.mac1609_4 	SlotsBackoff 	3477
scalar LocScenario.node[592].nic.mac1609_4 	NumInternalContention 	0
scalar LocScenario.node[592].nic.mac1609_4 	totalBusyTime 	1.624889
scalar LocScenario.node[592].veinsmobility 	startTime 	2960.1
scalar LocScenario.node[592].veinsmobility 	totalTime 	228
scalar LocScenario.node[592].veinsmobility 	stopTime 	3188.2
scalar LocScenario.node[592].veinsmobility 	minSpeed 	10.450002903154
scalar LocScenario.node[592].veinsmobility 	maxSpeed 	10.499981916684
scalar LocScenario.node[592].veinsmobility 	totalDistance 	2392.2669801902
scalar LocScenario.node[592].veinsmobility 	totalCO2Emission 	393.80776474356
scalar LocScenario.node[599].appl 	generatedWSMs 	0
scalar LocScenario.node[599].appl 	receivedWSMs 	0
scalar LocScenario.node[599].appl 	generatedBSMs 	2040
scalar LocScenario.node[599].appl 	receivedBSMs 	8206
scalar LocScenario.node[599].appl 	generatedWSAs 	0
scalar LocScenario.node[599].appl 	receivedWSAs 	0
scalar LocScenario.node[599].appl 	rmseSUMGPS 	855790.99974894
scalar LocScenario.node[599].appl 	rmseSUMCP 	1580145.4903831
scalar LocScenario.node[599].appl 	delaySum 	0.91811366767161
scalar LocScenario.node[599].nic.phy80211p 	busyTime 	0.0041834509803919
scalar LocScenario.node[599].nic.mac1609_4 	ReceivedUnicastPackets 	0
scalar LocScenario.node[599].nic.mac1609_4 	ReceivedBroadcasts 	8206
scalar LocScenario.node[599].nic.mac1609_4 	SentPackets 	2040
scalar LocScenario.node[599].nic.mac1609_4 	SNIRLostPackets 	0
scalar LocScenario.node[599].nic.mac1609_4 	RXTXLostPackets 	0
scalar LocScenario.node[599].nic.mac1609_4 	TotalLostPackets 	0
scalar LocScenario.node[599].nic.mac1609_4 	DroppedPacketsInMac 	0
scalar LocScenario.node[599].nic.mac1609_4 	TooLittleTime 	0
scalar LocScenario.node[599].nic.mac1609_4 	TimesIntoBackoff 	2040
scalar LocScenario.node[599].nic.mac1609_4 	SlotsBackoff 	3036
scalar LocScenario.node[599].nic.mac1609_4 	NumInternalContention 	0
scalar LocScenario.node[599].nic.mac1609_4 	totalBusyTime 	1.067624
scalar LocScenario.node[599].veinsmobility 	startTime 	2990.1
scalar LocScenario.node[599].veinsmobility 	totalTime 	203.9
scalar LocScenario.node[599].veinsmobility 	stopTime 	3194.1
scalar LocScenario.node[599].veinsmobility 	minSpeed 	10.450080283801
scalar LocScenario.node[599].veinsmobility 	maxSpeed 	10.499941885332
scalar LocScenario.node[599].veinsmobility 	totalDistance 	2138.7814083154
scalar LocScenario.node[599].veinsmobility 	totalCO2Emission 	351.77225346485
scalar LocScenario.node[594].appl 	generatedWSMs 	0
scalar LocScenario.node[594].appl 	receivedWSMs 	0
scalar LocScenario.node[594].appl 	generatedBSMs 	2281
scalar LocScenario.node[594].appl 	receivedBSMs 	12877
scalar LocScenario.node[594].appl 	generatedWSAs 	0
scalar LocScenario.node[594].appl 	receivedWSAs 	0
scalar LocScenario.node[594].appl 	rmseSUMGPS 	645151.49289826
scalar LocScenario.node[594].appl 	rmseSUMCP 	61462135.654152
scalar LocScenario.node[594].appl 	delaySum 	23.721193141542
scalar LocScenario.node[594].nic.phy80211p 	busyTime 	0.0059947040771605
scalar LocScenario.node[594].nic.mac1609_4 	ReceivedUnicastPackets 	0
scalar LocScenario.node[594].nic.mac1609_4 	ReceivedBroadcasts 	12877
scalar LocScenario.node[594].nic.mac1609_4 	SentPackets 	2281
scalar LocScenario.node[594].nic.mac1609_4 	SNIRLostPackets 	271
scalar LocScenario.node[594].nic.mac1609_4 	RXTXLostPackets 	0
scalar LocScenario.node[594].nic.mac1609_4 	TotalLostPackets 	271
scalar LocScenario.node[594].nic.mac1609_4 	DroppedPacketsInMac 	0
scalar LocScenario.node[594].nic.mac1609_4 	TooLittleTime 	0
scalar LocScenario.node[594].nic.mac1609_4 	TimesIntoBackoff 	2281
scalar LocScenario.node[594].nic.mac1609_4 	SlotsBackoff 	3445
scalar LocScenario.node[594].nic.mac1609_4 	NumInternalContention 	0
scalar LocScenario.node[594].nic.mac1609_4 	totalBusyTime 	1.596547819036
scalar LocScenario.node[594].veinsmobility 	startTime 	2970.1
scalar LocScenario.node[594].veinsmobility 	totalTime 	228
scalar LocScenario.node[594].veinsmobility 	stopTime 	3198.2
scalar LocScenario.node[594].veinsmobility 	minSpeed 	10.450020440994
scalar LocScenario.node[594].veinsmobility 	maxSpeed 	10.499989914778
scalar LocScenario.node[594].veinsmobility 	totalDistance 	2388.6629800397
scalar LocScenario.node[594].veinsmobility 	totalCO2Emission 	393.14084419199
scalar LocScenario.node[596].appl 	generatedWSMs 	0
scalar LocScenario.node[596].appl 	receivedWSMs 	0
scalar LocScenario.node[596].appl 	generatedBSMs 	2281
scalar LocScenario.node[596].appl 	receivedBSMs 	10884
scalar LocScenario.node[596].appl 	generatedWSAs 	0
scalar LocScenario.node[596].appl 	receivedWSAs 	0
scalar LocScenario.node[596].appl 	rmseSUMGPS 	585249.71251539
scalar LocScenario.node[596].appl 	rmseSUMCP 	3448852.7898502
scalar LocScenario.node[596].appl 	delaySum 	1.229021386132
scalar LocScenario.node[596].nic.phy80211p 	busyTime 	0.0049779570363879
scalar LocScenario.node[596].nic.mac1609_4 	ReceivedUnicastPackets 	0
scalar LocScenario.node[596].nic.mac1609_4 	ReceivedBroadcasts 	10884
scalar LocScenario.node[596].nic.mac1609_4 	SentPackets 	2281
scalar LocScenario.node[596].nic.mac1609_4 	SNIRLostPackets 	34
scalar LocScenario.node[596].nic.mac1609_4 	RXTXLostPackets 	0
scalar LocScenario.node[596].nic.mac1609_4 	TotalLostPackets 	34
scalar LocScenario.node[596].nic.mac1609_4 	DroppedPacketsInMac 	0
scalar LocScenario.node[596].nic.mac1609_4 	TooLittleTime 	0
scalar LocScenario.node[596].nic.mac1609_4 	TimesIntoBackoff 	2281
scalar LocScenario.node[596].nic.mac1609_4 	SlotsBackoff 	3472
scalar LocScenario.node[596].nic.mac1609_4 	NumInternalContention 	0
scalar LocScenario.node[596].nic.mac1609_4 	totalBusyTime 	1.374977
scalar LocScenario.node[596].veinsmobility 	startTime 	2980.1
scalar LocScenario.node[596].veinsmobility 	totalTime 	228
scalar LocScenario.node[596].veinsmobility 	stopTime 	3208.2
scalar LocScenario.node[596].veinsmobility 	minSpeed 	10.450034910918
scalar LocScenario.node[596].veinsmobility 	maxSpeed 	10.4999787056
scalar LocScenario.node[596].veinsmobility 	totalDistance 	2388.80003305
scalar LocScenario.node[596].veinsmobility 	totalCO2Emission 	393.07288184852
scalar LocScenario.node[598].appl 	generatedWSMs 	0
scalar LocScenario.node[598].appl 	receivedWSMs 	0
scalar LocScenario.node[598].appl 	generatedBSMs 	2281
scalar LocScenario.node[598].appl 	receivedBSMs 	8511
scalar LocScenario.node[598].appl 	generatedWSAs 	0
scalar LocScenario.node[598].appl 	receivedWSAs 	0
scalar LocScenario.node[598].appl 	rmseSUMGPS 	811272.57809565
scalar LocScenario.node[598].appl 	rmseSUMCP 	1539910.5503012
scalar LocScenario.node[598].appl 	delaySum 	2.7409174960021
scalar LocScenario.node[598].nic.phy80211p 	busyTime 	0.00388233231039
scalar LocScenario.node[598].nic.mac1609_4 	ReceivedUnicastPackets 	0
scalar LocScenario.node[598].nic.mac1609_4 	ReceivedBroadcasts 	8511
scalar LocScenario.node[598].nic.mac1609_4 	SentPackets 	2281
scalar LocScenario.node[598].nic.mac1609_4 	SNIRLostPackets 	4
scalar LocScenario.node[598].nic.mac1609_4 	RXTXLostPackets 	0
scalar LocScenario.node[598].nic.mac1609_4 	TotalLostPackets 	4
scalar LocScenario.node[598].nic.mac1609_4 	DroppedPacketsInMac 	0
scalar LocScenario.node[598].nic.mac1609_4 	TooLittleTime 	0
scalar LocScenario.node[598].nic.mac1609_4 	TimesIntoBackoff 	2281
scalar LocScenario.node[598].nic.mac1609_4 	SlotsBackoff 	3429
scalar LocScenario.node[598].nic.mac1609_4 	NumInternalContention 	0
scalar LocScenario.node[598].nic.mac1609_4 	totalBusyTime 	1.125065
scalar LocScenario.node[598].veinsmobility 	startTime 	2990.1
scalar LocScenario.node[598].veinsmobility 	totalTime 	228
scalar LocScenario.node[598].veinsmobility 	stopTime 	3218.2
scalar LocScenario.node[598].veinsmobility 	minSpeed 	10.450006983848
scalar LocScenario.node[598].veinsmobility 	maxSpeed 	10.499969245866
scalar LocScenario.node[598].veinsmobility 	totalDistance 	2394.8072213171
scalar LocScenario.node[598].veinsmobility 	totalCO2Emission 	393.38496743262
scalar LocScenario.outagesServer.appl 	generatedWSMs 	0
scalar LocScenario.outagesServer.appl 	receivedWSMs 	0
scalar LocScenario.outagesServer.appl 	generatedBSMs 	0
scalar LocScenario.outagesServer.appl 	receivedBSMs 	0
scalar LocScenario.outagesServer.appl 	generatedWSAs 	0
scalar LocScenario.outagesServer.appl 	receivedWSAs 	0
scalar LocScenario.outagesServer.nic.phy80211p 	busyTime 	0
scalar LocScenario.outagesServer.nic.mac1609_4 	ReceivedUnicastPackets 	0
scalar LocScenario.outagesServer.nic.mac1609_4 	ReceivedBroadcasts 	0
scalar LocScenario.outagesServer.nic.mac1609_4 	SentPackets 	0
scalar LocScenario.outagesServer.nic.mac1609_4 	SNIRLostPackets 	0
scalar LocScenario.outagesServer.nic.mac1609_4 	RXTXLostPackets 	0
scalar LocScenario.outagesServer.nic.mac1609_4 	TotalLostPackets 	0
scalar LocScenario.outagesServer.nic.mac1609_4 	DroppedPacketsInMac 	0
scalar LocScenario.outagesServer.nic.mac1609_4 	TooLittleTime 	0
scalar LocScenario.outagesServer.nic.mac1609_4 	TimesIntoBackoff 	0
scalar LocScenario.outagesServer.nic.mac1609_4 	SlotsBackoff 	0
scalar LocScenario.outagesServer.nic.mac1609_4 	NumInternalContention 	0
scalar LocScenario.outagesServer.nic.mac1609_4 	totalBusyTime 	0
