version 2
run DMAT-0-20171028-17:05:37-15243
attr configname DMAT
attr datetime 20171028-17:05:37
attr experiment DMAT
attr hops 1
attr inifile omnetpp.ini
attr iterationvars "$logVehPeriod=1, $hops=1"
attr iterationvars2 "$logVehPeriod=1, $hops=1, $repetition=0"
attr logVehPeriod 1
attr measurement "$logVehPeriod=1, $hops=1"
attr network com.liborio.cooppos.LocScenario
attr processid 15243
attr repetition 0
attr replication #0
attr resultdir results
attr runnumber 0
attr seedset 0
param **.coreDebug false
param **.debug false
param *.annotations.draw false
param *.connectionManager.drawMaxIntfDist false
param *.connectionManager.maxInterfDist 600m
param *.connectionManager.sendDirect true
param *.manager.autoShutdown true
param *.manager.host "\"localhost\""
param *.manager.launchConfig "xmldoc(\"dmat-\"+string(${logVehPeriod = 1, 3, 5, 10, 15})+\".launchd.xml\")"
param *.manager.port 9999
param *.manager.updateInterval 0.1s
param *.node[*].appl.beaconInterval 0.1s
param *.node[*].appl.dataOnSch false
param *.node[*].appl.headerLength "80 bit"
param *.node[*].appl.hops "${hops = 1, 2, 3, 4, 5}"
param *.node[*].appl.logVehPeriod ${logVehPeriod}
param *.node[*].appl.seedPar ${repetition}
param *.node[*].appl.sendBeacons true
param *.node[*].applType "\"Communication\""
param *.node[*].nic.mac1609_4.bitrate 6Mbps
param *.node[*].nic.mac1609_4.txPower 20mW
param *.node[*].nic.mac1609_4.useServiceChannel false
param *.node[*].nic.phy80211p.analogueModels "xmldoc(\"config.xml\")"
param *.node[*].nic.phy80211p.antenna "xmldoc(\"antenna.xml\", \"/root/Antenna[@id='monopole']\")"
param *.node[*].nic.phy80211p.decider "xmldoc(\"config.xml\")"
param *.node[*].nic.phy80211p.sensitivity -84.39dBm
param *.node[*].nic.phy80211p.thermalNoise -110dBm
param *.node[*].nic.phy80211p.usePropagationDelay true
param *.node[*].nic.phy80211p.useThermalNoise true
param *.node[*].veinsmobility.x 0
param *.node[*].veinsmobility.y 0
param *.node[*].veinsmobility.z 1.895
param *.node[*].veinsmobilityType.debug true
param *.outagesServer.appl.beaconInterval 0.1s
param *.outagesServer.appl.beaconPriority 3
param *.outagesServer.appl.dataOnSch false
param *.outagesServer.appl.dataPriority 2
param *.outagesServer.appl.headerLength "80 bit"
param *.outagesServer.appl.sendBeacons false
param *.outagesServer.applType "\"Outages\""
param *.outagesServer.mobility.x 5000.0
param *.outagesServer.mobility.y 5000.0
param *.outagesServer.mobility.z 3
param *.outagesServer.nic.mac1609_4.bitrate 6Mbps
param *.outagesServer.nic.mac1609_4.txPower 20mW
param *.outagesServer.nic.mac1609_4.useServiceChannel false
param *.outagesServer.nic.phy80211p.analogueModels "xmldoc(\"config.xml\")"
param *.outagesServer.nic.phy80211p.antenna "xmldoc(\"antenna.xml\", \"/root/Antenna[@id='monopole']\")"
param *.outagesServer.nic.phy80211p.decider "xmldoc(\"config.xml\")"
param *.outagesServer.nic.phy80211p.sensitivity -84.39dBm
param *.outagesServer.nic.phy80211p.thermalNoise -110dBm
param *.outagesServer.nic.phy80211p.usePropagationDelay true
param *.outagesServer.nic.phy80211p.useThermalNoise true
param *.playgroundSizeX 20000m
param *.playgroundSizeY 20000m
param *.playgroundSizeZ 50m

scalar . 	hops 	1
scalar . 	logVehPeriod 	1
scalar LocScenario.node[0].appl 	generatedWSMs 	0
scalar LocScenario.node[0].appl 	receivedWSMs 	0
scalar LocScenario.node[0].appl 	generatedBSMs 	9
scalar LocScenario.node[0].appl 	receivedBSMs 	0
scalar LocScenario.node[0].appl 	generatedWSAs 	0
scalar LocScenario.node[0].appl 	receivedWSAs 	0
scalar LocScenario.node[0].appl 	rmseSUMGPS 	83.105358072012
scalar LocScenario.node[0].appl 	rmseSUMCP 	0
scalar LocScenario.node[0].appl 	delaySum 	0
scalar LocScenario.node[0].nic.phy80211p 	busyTime 	0
scalar LocScenario.node[0].nic.mac1609_4 	ReceivedUnicastPackets 	0
scalar LocScenario.node[0].nic.mac1609_4 	ReceivedBroadcasts 	0
scalar LocScenario.node[0].nic.mac1609_4 	SentPackets 	9
scalar LocScenario.node[0].nic.mac1609_4 	SNIRLostPackets 	0
scalar LocScenario.node[0].nic.mac1609_4 	RXTXLostPackets 	0
scalar LocScenario.node[0].nic.mac1609_4 	TotalLostPackets 	0
scalar LocScenario.node[0].nic.mac1609_4 	DroppedPacketsInMac 	0
scalar LocScenario.node[0].nic.mac1609_4 	TooLittleTime 	0
scalar LocScenario.node[0].nic.mac1609_4 	TimesIntoBackoff 	9
scalar LocScenario.node[0].nic.mac1609_4 	SlotsBackoff 	14
scalar LocScenario.node[0].nic.mac1609_4 	NumInternalContention 	0
scalar LocScenario.node[0].nic.mac1609_4 	totalBusyTime 	0.000945
scalar LocScenario.node[0].veinsmobility 	startTime 	0.1
scalar LocScenario.node[0].veinsmobility 	totalTime 	0.8
scalar LocScenario.node[0].veinsmobility 	stopTime 	0.948105
scalar LocScenario.node[0].veinsmobility 	minSpeed 	10.451816861797
scalar LocScenario.node[0].veinsmobility 	maxSpeed 	10.478817260161
scalar LocScenario.node[0].veinsmobility 	totalDistance 	8.336090858272
scalar LocScenario.node[0].veinsmobility 	totalCO2Emission 	1.1559625141548
scalar LocScenario.node[1].appl 	generatedWSMs 	0
scalar LocScenario.node[1].appl 	receivedWSMs 	0
scalar LocScenario.node[1].appl 	generatedBSMs 	9
scalar LocScenario.node[1].appl 	receivedBSMs 	0
scalar LocScenario.node[1].appl 	generatedWSAs 	0
scalar LocScenario.node[1].appl 	receivedWSAs 	0
scalar LocScenario.node[1].appl 	rmseSUMGPS 	81.162401169842
scalar LocScenario.node[1].appl 	rmseSUMCP 	0
scalar LocScenario.node[1].appl 	delaySum 	2.5240849429889e-316
scalar LocScenario.node[1].nic.phy80211p 	busyTime 	0
scalar LocScenario.node[1].nic.mac1609_4 	ReceivedUnicastPackets 	0
scalar LocScenario.node[1].nic.mac1609_4 	ReceivedBroadcasts 	0
scalar LocScenario.node[1].nic.mac1609_4 	SentPackets 	9
scalar LocScenario.node[1].nic.mac1609_4 	SNIRLostPackets 	0
scalar LocScenario.node[1].nic.mac1609_4 	RXTXLostPackets 	0
scalar LocScenario.node[1].nic.mac1609_4 	TotalLostPackets 	0
scalar LocScenario.node[1].nic.mac1609_4 	DroppedPacketsInMac 	0
scalar LocScenario.node[1].nic.mac1609_4 	TooLittleTime 	0
scalar LocScenario.node[1].nic.mac1609_4 	TimesIntoBackoff 	9
scalar LocScenario.node[1].nic.mac1609_4 	SlotsBackoff 	10
scalar LocScenario.node[1].nic.mac1609_4 	NumInternalContention 	0
scalar LocScenario.node[1].nic.mac1609_4 	totalBusyTime 	0.000945
scalar LocScenario.node[1].veinsmobility 	startTime 	0.1
scalar LocScenario.node[1].veinsmobility 	totalTime 	0.8
scalar LocScenario.node[1].veinsmobility 	stopTime 	0.948105
scalar LocScenario.node[1].veinsmobility 	minSpeed 	10.457102719008
scalar LocScenario.node[1].veinsmobility 	maxSpeed 	10.497164351214
scalar LocScenario.node[1].veinsmobility 	totalDistance 	8.4042099258872
scalar LocScenario.node[1].veinsmobility 	totalCO2Emission 	1.2773044979805
scalar LocScenario.outagesServer.appl 	generatedWSMs 	4290295992
scalar LocScenario.outagesServer.appl 	receivedWSMs 	4290295992
scalar LocScenario.outagesServer.appl 	generatedBSMs 	4290295992
scalar LocScenario.outagesServer.appl 	receivedBSMs 	4290295992
scalar LocScenario.outagesServer.appl 	generatedWSAs 	4290295992
scalar LocScenario.outagesServer.appl 	receivedWSAs 	4290295992
scalar LocScenario.outagesServer.nic.phy80211p 	busyTime 	0
scalar LocScenario.outagesServer.nic.mac1609_4 	ReceivedUnicastPackets 	0
scalar LocScenario.outagesServer.nic.mac1609_4 	ReceivedBroadcasts 	0
scalar LocScenario.outagesServer.nic.mac1609_4 	SentPackets 	0
scalar LocScenario.outagesServer.nic.mac1609_4 	SNIRLostPackets 	0
scalar LocScenario.outagesServer.nic.mac1609_4 	RXTXLostPackets 	0
scalar LocScenario.outagesServer.nic.mac1609_4 	TotalLostPackets 	0
scalar LocScenario.outagesServer.nic.mac1609_4 	DroppedPacketsInMac 	0
scalar LocScenario.outagesServer.nic.mac1609_4 	TooLittleTime 	0
scalar LocScenario.outagesServer.nic.mac1609_4 	TimesIntoBackoff 	0
scalar LocScenario.outagesServer.nic.mac1609_4 	SlotsBackoff 	0
scalar LocScenario.outagesServer.nic.mac1609_4 	NumInternalContention 	0
scalar LocScenario.outagesServer.nic.mac1609_4 	totalBusyTime 	0
version 2
run DMAT-0-20171028-17:24:45-15817
attr configname DMAT
attr datetime 20171028-17:24:45
attr experiment DMAT
attr hops 1
attr inifile omnetpp.ini
attr iterationvars "$logVehPeriod=1, $hops=1"
attr iterationvars2 "$logVehPeriod=1, $hops=1, $repetition=0"
attr logVehPeriod 1
attr measurement "$logVehPeriod=1, $hops=1"
attr network com.liborio.cooppos.LocScenario
attr processid 15817
attr repetition 0
attr replication #0
attr resultdir results
attr runnumber 0
attr seedset 0
param **.coreDebug false
param **.debug false
param *.annotations.draw false
param *.connectionManager.drawMaxIntfDist false
param *.connectionManager.maxInterfDist 600m
param *.connectionManager.sendDirect true
param *.manager.autoShutdown true
param *.manager.host "\"localhost\""
param *.manager.launchConfig "xmldoc(\"dmat-\"+string(${logVehPeriod = 1, 3, 5, 10, 15})+\".launchd.xml\")"
param *.manager.port 9999
param *.manager.updateInterval 0.1s
param *.node[*].appl.beaconInterval 0.1s
param *.node[*].appl.dataOnSch false
param *.node[*].appl.headerLength "80 bit"
param *.node[*].appl.hops "${hops = 1, 2, 3, 4, 5}"
param *.node[*].appl.logVehPeriod ${logVehPeriod}
param *.node[*].appl.seedPar ${repetition}
param *.node[*].appl.sendBeacons true
param *.node[*].applType "\"Communication\""
param *.node[*].nic.mac1609_4.bitrate 6Mbps
param *.node[*].nic.mac1609_4.txPower 20mW
param *.node[*].nic.mac1609_4.useServiceChannel false
param *.node[*].nic.phy80211p.analogueModels "xmldoc(\"config.xml\")"
param *.node[*].nic.phy80211p.antenna "xmldoc(\"antenna.xml\", \"/root/Antenna[@id='monopole']\")"
param *.node[*].nic.phy80211p.decider "xmldoc(\"config.xml\")"
param *.node[*].nic.phy80211p.sensitivity -84.39dBm
param *.node[*].nic.phy80211p.thermalNoise -110dBm
param *.node[*].nic.phy80211p.usePropagationDelay true
param *.node[*].nic.phy80211p.useThermalNoise true
param *.node[*].veinsmobility.x 0
param *.node[*].veinsmobility.y 0
param *.node[*].veinsmobility.z 1.895
param *.node[*].veinsmobilityType.debug true
param *.outagesServer.appl.beaconInterval 0.1s
param *.outagesServer.appl.beaconPriority 3
param *.outagesServer.appl.dataOnSch false
param *.outagesServer.appl.dataPriority 2
param *.outagesServer.appl.headerLength "80 bit"
param *.outagesServer.appl.sendBeacons false
param *.outagesServer.applType "\"Outages\""
param *.outagesServer.mobility.x 5000.0
param *.outagesServer.mobility.y 5000.0
param *.outagesServer.mobility.z 3
param *.outagesServer.nic.mac1609_4.bitrate 6Mbps
param *.outagesServer.nic.mac1609_4.txPower 20mW
param *.outagesServer.nic.mac1609_4.useServiceChannel false
param *.outagesServer.nic.phy80211p.analogueModels "xmldoc(\"config.xml\")"
param *.outagesServer.nic.phy80211p.antenna "xmldoc(\"antenna.xml\", \"/root/Antenna[@id='monopole']\")"
param *.outagesServer.nic.phy80211p.decider "xmldoc(\"config.xml\")"
param *.outagesServer.nic.phy80211p.sensitivity -84.39dBm
param *.outagesServer.nic.phy80211p.thermalNoise -110dBm
param *.outagesServer.nic.phy80211p.usePropagationDelay true
param *.outagesServer.nic.phy80211p.useThermalNoise true
param *.playgroundSizeX 20000m
param *.playgroundSizeY 20000m
param *.playgroundSizeZ 50m

scalar . 	hops 	1
scalar . 	logVehPeriod 	1
scalar LocScenario.node[0].appl 	generatedWSMs 	0
scalar LocScenario.node[0].appl 	receivedWSMs 	0
scalar LocScenario.node[0].appl 	generatedBSMs 	379
scalar LocScenario.node[0].appl 	receivedBSMs 	5467
scalar LocScenario.node[0].appl 	generatedWSAs 	0
scalar LocScenario.node[0].appl 	receivedWSAs 	0
scalar LocScenario.node[0].appl 	rmseSUMGPS 	63016.096354399
scalar LocScenario.node[0].appl 	rmseSUMCP 	74710.719037097
scalar LocScenario.node[0].appl 	delaySum 	0.61162474415798
scalar LocScenario.node[0].nic.phy80211p 	busyTime 	0.015028575555225
scalar LocScenario.node[0].nic.mac1609_4 	ReceivedUnicastPackets 	0
scalar LocScenario.node[0].nic.mac1609_4 	ReceivedBroadcasts 	5467
scalar LocScenario.node[0].nic.mac1609_4 	SentPackets 	379
scalar LocScenario.node[0].nic.mac1609_4 	SNIRLostPackets 	0
scalar LocScenario.node[0].nic.mac1609_4 	RXTXLostPackets 	0
scalar LocScenario.node[0].nic.mac1609_4 	TotalLostPackets 	0
scalar LocScenario.node[0].nic.mac1609_4 	DroppedPacketsInMac 	0
scalar LocScenario.node[0].nic.mac1609_4 	TooLittleTime 	0
scalar LocScenario.node[0].nic.mac1609_4 	TimesIntoBackoff 	379
scalar LocScenario.node[0].nic.mac1609_4 	SlotsBackoff 	581
scalar LocScenario.node[0].nic.mac1609_4 	NumInternalContention 	0
scalar LocScenario.node[0].nic.mac1609_4 	totalBusyTime 	0.608363
scalar LocScenario.node[0].veinsmobility 	startTime 	0.1
scalar LocScenario.node[0].veinsmobility 	totalTime 	37.8
scalar LocScenario.node[0].veinsmobility 	stopTime 	37.932461094577
scalar LocScenario.node[0].veinsmobility 	minSpeed 	10.450104123866
scalar LocScenario.node[0].veinsmobility 	maxSpeed 	10.499734248
scalar LocScenario.node[0].veinsmobility 	totalDistance 	394.95305502435
scalar LocScenario.node[0].veinsmobility 	totalCO2Emission 	65.114815374197
scalar LocScenario.node[2].appl 	generatedWSMs 	0
scalar LocScenario.node[2].appl 	receivedWSMs 	0
scalar LocScenario.node[2].appl 	generatedBSMs 	369
scalar LocScenario.node[2].appl 	receivedBSMs 	5781
scalar LocScenario.node[2].appl 	generatedWSAs 	0
scalar LocScenario.node[2].appl 	receivedWSAs 	0
scalar LocScenario.node[2].appl 	rmseSUMGPS 	3231.7508767132
scalar LocScenario.node[2].appl 	rmseSUMCP 	69728.25328694
scalar LocScenario.node[2].appl 	delaySum 	0.64636874728689
scalar LocScenario.node[2].nic.phy80211p 	busyTime 	0.016323210074292
scalar LocScenario.node[2].nic.mac1609_4 	ReceivedUnicastPackets 	0
scalar LocScenario.node[2].nic.mac1609_4 	ReceivedBroadcasts 	5781
scalar LocScenario.node[2].nic.mac1609_4 	SentPackets 	369
scalar LocScenario.node[2].nic.mac1609_4 	SNIRLostPackets 	0
scalar LocScenario.node[2].nic.mac1609_4 	RXTXLostPackets 	0
scalar LocScenario.node[2].nic.mac1609_4 	TotalLostPackets 	0
scalar LocScenario.node[2].nic.mac1609_4 	DroppedPacketsInMac 	0
scalar LocScenario.node[2].nic.mac1609_4 	TooLittleTime 	0
scalar LocScenario.node[2].nic.mac1609_4 	TimesIntoBackoff 	369
scalar LocScenario.node[2].nic.mac1609_4 	SlotsBackoff 	545
scalar LocScenario.node[2].nic.mac1609_4 	NumInternalContention 	0
scalar LocScenario.node[2].nic.mac1609_4 	totalBusyTime 	0.639969
scalar LocScenario.node[2].veinsmobility 	startTime 	1.1
scalar LocScenario.node[2].veinsmobility 	totalTime 	36.8
scalar LocScenario.node[2].veinsmobility 	stopTime 	37.932461094577
scalar LocScenario.node[2].veinsmobility 	minSpeed 	10.450082840421
scalar LocScenario.node[2].veinsmobility 	maxSpeed 	10.499868757115
scalar LocScenario.node[2].veinsmobility 	totalDistance 	388.06345778326
scalar LocScenario.node[2].veinsmobility 	totalCO2Emission 	63.402738997629
scalar LocScenario.node[20].appl 	generatedWSMs 	0
scalar LocScenario.node[20].appl 	receivedWSMs 	0
scalar LocScenario.node[20].appl 	generatedBSMs 	278
scalar LocScenario.node[20].appl 	receivedBSMs 	6269
scalar LocScenario.node[20].appl 	generatedWSAs 	0
scalar LocScenario.node[20].appl 	receivedWSAs 	0
scalar LocScenario.node[20].appl 	rmseSUMGPS 	2630.820707757
scalar LocScenario.node[20].appl 	rmseSUMCP 	78918.304341809
scalar LocScenario.node[20].appl 	delaySum 	62.789656900071
scalar LocScenario.node[20].nic.phy80211p 	busyTime 	0.023425021516585
scalar LocScenario.node[20].nic.mac1609_4 	ReceivedUnicastPackets 	0
scalar LocScenario.node[20].nic.mac1609_4 	ReceivedBroadcasts 	6269
scalar LocScenario.node[20].nic.mac1609_4 	SentPackets 	278
scalar LocScenario.node[20].nic.mac1609_4 	SNIRLostPackets 	0
scalar LocScenario.node[20].nic.mac1609_4 	RXTXLostPackets 	0
scalar LocScenario.node[20].nic.mac1609_4 	TotalLostPackets 	0
scalar LocScenario.node[20].nic.mac1609_4 	DroppedPacketsInMac 	0
scalar LocScenario.node[20].nic.mac1609_4 	TooLittleTime 	0
scalar LocScenario.node[20].nic.mac1609_4 	TimesIntoBackoff 	278
scalar LocScenario.node[20].nic.mac1609_4 	SlotsBackoff 	398
scalar LocScenario.node[20].nic.mac1609_4 	NumInternalContention 	0
scalar LocScenario.node[20].nic.mac1609_4 	totalBusyTime 	0.681166
scalar LocScenario.node[20].veinsmobility 	startTime 	10.1
scalar LocScenario.node[20].veinsmobility 	totalTime 	27.8
scalar LocScenario.node[20].veinsmobility 	stopTime 	37.932461094577
scalar LocScenario.node[20].veinsmobility 	minSpeed 	10.450370253308
scalar LocScenario.node[20].veinsmobility 	maxSpeed 	10.499996315152
scalar LocScenario.node[20].veinsmobility 	totalDistance 	290.30104848133
scalar LocScenario.node[20].veinsmobility 	totalCO2Emission 	47.867586066962
scalar LocScenario.node[22].appl 	generatedWSMs 	0
scalar LocScenario.node[22].appl 	receivedWSMs 	0
scalar LocScenario.node[22].appl 	generatedBSMs 	269
scalar LocScenario.node[22].appl 	receivedBSMs 	6275
scalar LocScenario.node[22].appl 	generatedWSAs 	0
scalar LocScenario.node[22].appl 	receivedWSAs 	0
scalar LocScenario.node[22].appl 	rmseSUMGPS 	9403.3264293381
scalar LocScenario.node[22].appl 	rmseSUMCP 	74221.028579497
scalar LocScenario.node[22].appl 	delaySum 	0.70138135691305
scalar LocScenario.node[22].nic.phy80211p 	busyTime 	0.024321287477125
scalar LocScenario.node[22].nic.mac1609_4 	ReceivedUnicastPackets 	0
scalar LocScenario.node[22].nic.mac1609_4 	ReceivedBroadcasts 	6275
scalar LocScenario.node[22].nic.mac1609_4 	SentPackets 	269
scalar LocScenario.node[22].nic.mac1609_4 	SNIRLostPackets 	0
scalar LocScenario.node[22].nic.mac1609_4 	RXTXLostPackets 	0
scalar LocScenario.node[22].nic.mac1609_4 	TotalLostPackets 	0
scalar LocScenario.node[22].nic.mac1609_4 	DroppedPacketsInMac 	0
scalar LocScenario.node[22].nic.mac1609_4 	TooLittleTime 	0
scalar LocScenario.node[22].nic.mac1609_4 	TimesIntoBackoff 	269
scalar LocScenario.node[22].nic.mac1609_4 	SlotsBackoff 	375
scalar LocScenario.node[22].nic.mac1609_4 	NumInternalContention 	0
scalar LocScenario.node[22].nic.mac1609_4 	totalBusyTime 	0.680845
scalar LocScenario.node[22].veinsmobility 	startTime 	11.1
scalar LocScenario.node[22].veinsmobility 	totalTime 	26.8
scalar LocScenario.node[22].veinsmobility 	stopTime 	37.932461094577
scalar LocScenario.node[22].veinsmobility 	minSpeed 	8.1255463299031
scalar LocScenario.node[22].veinsmobility 	maxSpeed 	10.499488692707
scalar LocScenario.node[22].veinsmobility 	totalDistance 	275.64355567764
scalar LocScenario.node[22].veinsmobility 	totalCO2Emission 	50.25639615694
scalar LocScenario.node[24].appl 	generatedWSMs 	0
scalar LocScenario.node[24].appl 	receivedWSMs 	0
scalar LocScenario.node[24].appl 	generatedBSMs 	258
scalar LocScenario.node[24].appl 	receivedBSMs 	6252
scalar LocScenario.node[24].appl 	generatedWSAs 	0
scalar LocScenario.node[24].appl 	receivedWSAs 	0
scalar LocScenario.node[24].appl 	rmseSUMGPS 	2290.2874381582
scalar LocScenario.node[24].appl 	rmseSUMCP 	95505.406761319
scalar LocScenario.node[24].appl 	delaySum 	0.69889206517402
scalar LocScenario.node[24].nic.phy80211p 	busyTime 	0.025170191783874
scalar LocScenario.node[24].nic.mac1609_4 	ReceivedUnicastPackets 	0
scalar LocScenario.node[24].nic.mac1609_4 	ReceivedBroadcasts 	6252
scalar LocScenario.node[24].nic.mac1609_4 	SentPackets 	258
scalar LocScenario.node[24].nic.mac1609_4 	SNIRLostPackets 	0
scalar LocScenario.node[24].nic.mac1609_4 	RXTXLostPackets 	0
scalar LocScenario.node[24].nic.mac1609_4 	TotalLostPackets 	0
scalar LocScenario.node[24].nic.mac1609_4 	DroppedPacketsInMac 	0
scalar LocScenario.node[24].nic.mac1609_4 	TooLittleTime 	0
scalar LocScenario.node[24].nic.mac1609_4 	TimesIntoBackoff 	258
scalar LocScenario.node[24].nic.mac1609_4 	SlotsBackoff 	389
scalar LocScenario.node[24].nic.mac1609_4 	NumInternalContention 	0
scalar LocScenario.node[24].nic.mac1609_4 	totalBusyTime 	0.677298
scalar LocScenario.node[24].veinsmobility 	startTime 	12.1
scalar LocScenario.node[24].veinsmobility 	totalTime 	25.8
scalar LocScenario.node[24].veinsmobility 	stopTime 	37.932461094577
scalar LocScenario.node[24].veinsmobility 	minSpeed 	6.6348367620886
scalar LocScenario.node[24].veinsmobility 	maxSpeed 	10.499954835791
scalar LocScenario.node[24].veinsmobility 	totalDistance 	264.50442371257
scalar LocScenario.node[24].veinsmobility 	totalCO2Emission 	51.743699464288
scalar LocScenario.node[26].appl 	generatedWSMs 	0
scalar LocScenario.node[26].appl 	receivedWSMs 	0
scalar LocScenario.node[26].appl 	generatedBSMs 	249
scalar LocScenario.node[26].appl 	receivedBSMs 	6131
scalar LocScenario.node[26].appl 	generatedWSAs 	0
scalar LocScenario.node[26].appl 	receivedWSAs 	0
scalar LocScenario.node[26].appl 	rmseSUMGPS 	3250.1841872879
scalar LocScenario.node[26].appl 	rmseSUMCP 	93389.305824871
scalar LocScenario.node[26].appl 	delaySum 	0.68533877057814
scalar LocScenario.node[26].nic.phy80211p 	busyTime 	0.025677036100913
scalar LocScenario.node[26].nic.mac1609_4 	ReceivedUnicastPackets 	0
scalar LocScenario.node[26].nic.mac1609_4 	ReceivedBroadcasts 	6131
scalar LocScenario.node[26].nic.mac1609_4 	SentPackets 	249
scalar LocScenario.node[26].nic.mac1609_4 	SNIRLostPackets 	0
scalar LocScenario.node[26].nic.mac1609_4 	RXTXLostPackets 	0
scalar LocScenario.node[26].nic.mac1609_4 	TotalLostPackets 	0
scalar LocScenario.node[26].nic.mac1609_4 	DroppedPacketsInMac 	0
scalar LocScenario.node[26].nic.mac1609_4 	TooLittleTime 	0
scalar LocScenario.node[26].nic.mac1609_4 	TimesIntoBackoff 	249
scalar LocScenario.node[26].nic.mac1609_4 	SlotsBackoff 	383
scalar LocScenario.node[26].nic.mac1609_4 	NumInternalContention 	0
scalar LocScenario.node[26].nic.mac1609_4 	totalBusyTime 	0.663769
scalar LocScenario.node[26].veinsmobility 	startTime 	13.1
scalar LocScenario.node[26].veinsmobility 	totalTime 	24.8
scalar LocScenario.node[26].veinsmobility 	stopTime 	37.932461094577
scalar LocScenario.node[26].veinsmobility 	minSpeed 	9.7100206006525
scalar LocScenario.node[26].veinsmobility 	maxSpeed 	10.496872166905
scalar LocScenario.node[26].veinsmobility 	totalDistance 	258.91092457703
scalar LocScenario.node[26].veinsmobility 	totalCO2Emission 	44.33199917791
scalar LocScenario.node[28].appl 	generatedWSMs 	0
scalar LocScenario.node[28].appl 	receivedWSMs 	0
scalar LocScenario.node[28].appl 	generatedBSMs 	238
scalar LocScenario.node[28].appl 	receivedBSMs 	6030
scalar LocScenario.node[28].appl 	generatedWSAs 	0
scalar LocScenario.node[28].appl 	receivedWSAs 	0
scalar LocScenario.node[28].appl 	rmseSUMGPS 	2086.3379485961
scalar LocScenario.node[28].appl 	rmseSUMCP 	89548.116282061
scalar LocScenario.node[28].appl 	delaySum 	0.67400444240206
scalar LocScenario.node[28].nic.phy80211p 	busyTime 	0.026313690286173
scalar LocScenario.node[28].nic.mac1609_4 	ReceivedUnicastPackets 	0
scalar LocScenario.node[28].nic.mac1609_4 	ReceivedBroadcasts 	6030
scalar LocScenario.node[28].nic.mac1609_4 	SentPackets 	238
scalar LocScenario.node[28].nic.mac1609_4 	SNIRLostPackets 	0
scalar LocScenario.node[28].nic.mac1609_4 	RXTXLostPackets 	0
scalar LocScenario.node[28].nic.mac1609_4 	TotalLostPackets 	0
scalar LocScenario.node[28].nic.mac1609_4 	DroppedPacketsInMac 	0
scalar LocScenario.node[28].nic.mac1609_4 	TooLittleTime 	0
scalar LocScenario.node[28].nic.mac1609_4 	TimesIntoBackoff 	238
scalar LocScenario.node[28].nic.mac1609_4 	SlotsBackoff 	406
scalar LocScenario.node[28].nic.mac1609_4 	NumInternalContention 	0
scalar LocScenario.node[28].nic.mac1609_4 	totalBusyTime 	0.65211
scalar LocScenario.node[28].veinsmobility 	startTime 	14.1
scalar LocScenario.node[28].veinsmobility 	totalTime 	23.8
scalar LocScenario.node[28].veinsmobility 	stopTime 	37.932461094577
scalar LocScenario.node[28].veinsmobility 	minSpeed 	8.228617392602
scalar LocScenario.node[28].veinsmobility 	maxSpeed 	10.499752409459
scalar LocScenario.node[28].veinsmobility 	totalDistance 	242.5458285836
scalar LocScenario.node[28].veinsmobility 	totalCO2Emission 	45.788019049028
scalar LocScenario.node[30].appl 	generatedWSMs 	0
scalar LocScenario.node[30].appl 	receivedWSMs 	0
scalar LocScenario.node[30].appl 	generatedBSMs 	228
scalar LocScenario.node[30].appl 	receivedBSMs 	5917
scalar LocScenario.node[30].appl 	generatedWSAs 	0
scalar LocScenario.node[30].appl 	receivedWSAs 	0
scalar LocScenario.node[30].appl 	rmseSUMGPS 	1981.4642417987
scalar LocScenario.node[30].appl 	rmseSUMCP 	82654.189950366
scalar LocScenario.node[30].appl 	delaySum 	0.66346566759124
scalar LocScenario.node[30].nic.phy80211p 	busyTime 	0.026951452909565
scalar LocScenario.node[30].nic.mac1609_4 	ReceivedUnicastPackets 	0
scalar LocScenario.node[30].nic.mac1609_4 	ReceivedBroadcasts 	5917
scalar LocScenario.node[30].nic.mac1609_4 	SentPackets 	228
scalar LocScenario.node[30].nic.mac1609_4 	SNIRLostPackets 	0
scalar LocScenario.node[30].nic.mac1609_4 	RXTXLostPackets 	0
scalar LocScenario.node[30].nic.mac1609_4 	TotalLostPackets 	0
scalar LocScenario.node[30].nic.mac1609_4 	DroppedPacketsInMac 	0
scalar LocScenario.node[30].nic.mac1609_4 	TooLittleTime 	0
scalar LocScenario.node[30].nic.mac1609_4 	TimesIntoBackoff 	228
scalar LocScenario.node[30].nic.mac1609_4 	SlotsBackoff 	308
scalar LocScenario.node[30].nic.mac1609_4 	NumInternalContention 	0
scalar LocScenario.node[30].nic.mac1609_4 	totalBusyTime 	0.639308
scalar LocScenario.node[30].veinsmobility 	startTime 	15.1
scalar LocScenario.node[30].veinsmobility 	totalTime 	22.8
scalar LocScenario.node[30].veinsmobility 	stopTime 	37.932461094577
scalar LocScenario.node[30].veinsmobility 	minSpeed 	6.0815273551713
scalar LocScenario.node[30].veinsmobility 	maxSpeed 	10.499609489273
scalar LocScenario.node[30].veinsmobility 	totalDistance 	224.74749812951
scalar LocScenario.node[30].veinsmobility 	totalCO2Emission 	47.203401376761
scalar LocScenario.node[32].appl 	generatedWSMs 	0
scalar LocScenario.node[32].appl 	receivedWSMs 	0
scalar LocScenario.node[32].appl 	generatedBSMs 	218
scalar LocScenario.node[32].appl 	receivedBSMs 	5767
scalar LocScenario.node[32].appl 	generatedWSAs 	0
scalar LocScenario.node[32].appl 	receivedWSAs 	0
scalar LocScenario.node[32].appl 	rmseSUMGPS 	1918.1182066854
scalar LocScenario.node[32].appl 	rmseSUMCP 	74227.815065226
scalar LocScenario.node[32].appl 	delaySum 	0.64670084619397
scalar LocScenario.node[32].nic.phy80211p 	busyTime 	0.027471387554606
scalar LocScenario.node[32].nic.mac1609_4 	ReceivedUnicastPackets 	0
scalar LocScenario.node[32].nic.mac1609_4 	ReceivedBroadcasts 	5767
scalar LocScenario.node[32].nic.mac1609_4 	SentPackets 	218
scalar LocScenario.node[32].nic.mac1609_4 	SNIRLostPackets 	0
scalar LocScenario.node[32].nic.mac1609_4 	RXTXLostPackets 	0
scalar LocScenario.node[32].nic.mac1609_4 	TotalLostPackets 	0
scalar LocScenario.node[32].nic.mac1609_4 	DroppedPacketsInMac 	0
scalar LocScenario.node[32].nic.mac1609_4 	TooLittleTime 	0
scalar LocScenario.node[32].nic.mac1609_4 	TimesIntoBackoff 	218
scalar LocScenario.node[32].nic.mac1609_4 	SlotsBackoff 	330
scalar LocScenario.node[32].nic.mac1609_4 	NumInternalContention 	0
scalar LocScenario.node[32].nic.mac1609_4 	totalBusyTime 	0.622658
scalar LocScenario.node[32].veinsmobility 	startTime 	16.1
scalar LocScenario.node[32].veinsmobility 	totalTime 	21.8
scalar LocScenario.node[32].veinsmobility 	stopTime 	37.932461094577
scalar LocScenario.node[32].veinsmobility 	minSpeed 	10.450100909185
scalar LocScenario.node[32].veinsmobility 	maxSpeed 	10.499952634517
scalar LocScenario.node[32].veinsmobility 	totalDistance 	228.42187514413
scalar LocScenario.node[32].veinsmobility 	totalCO2Emission 	37.242584043535
scalar LocScenario.node[34].appl 	generatedWSMs 	0
scalar LocScenario.node[34].appl 	receivedWSMs 	0
scalar LocScenario.node[34].appl 	generatedBSMs 	209
scalar LocScenario.node[34].appl 	receivedBSMs 	5606
scalar LocScenario.node[34].appl 	generatedWSAs 	0
scalar LocScenario.node[34].appl 	receivedWSAs 	0
scalar LocScenario.node[34].appl 	rmseSUMGPS 	1851.1033315761
scalar LocScenario.node[34].appl 	rmseSUMCP 	76367.93799774
scalar LocScenario.node[34].appl 	delaySum 	0.62865704936728
scalar LocScenario.node[34].nic.phy80211p 	busyTime 	0.027986323716296
scalar LocScenario.node[34].nic.mac1609_4 	ReceivedUnicastPackets 	0
scalar LocScenario.node[34].nic.mac1609_4 	ReceivedBroadcasts 	5606
scalar LocScenario.node[34].nic.mac1609_4 	SentPackets 	209
scalar LocScenario.node[34].nic.mac1609_4 	SNIRLostPackets 	0
scalar LocScenario.node[34].nic.mac1609_4 	RXTXLostPackets 	0
scalar LocScenario.node[34].nic.mac1609_4 	TotalLostPackets 	0
scalar LocScenario.node[34].nic.mac1609_4 	DroppedPacketsInMac 	0
scalar LocScenario.node[34].nic.mac1609_4 	TooLittleTime 	0
scalar LocScenario.node[34].nic.mac1609_4 	TimesIntoBackoff 	209
scalar LocScenario.node[34].nic.mac1609_4 	SlotsBackoff 	312
scalar LocScenario.node[34].nic.mac1609_4 	NumInternalContention 	0
scalar LocScenario.node[34].nic.mac1609_4 	totalBusyTime 	0.604969
scalar LocScenario.node[34].veinsmobility 	startTime 	17.1
scalar LocScenario.node[34].veinsmobility 	totalTime 	20.8
scalar LocScenario.node[34].veinsmobility 	stopTime 	37.932461094577
scalar LocScenario.node[34].veinsmobility 	minSpeed 	8.5214998138072
scalar LocScenario.node[34].veinsmobility 	maxSpeed 	10.498916658328
scalar LocScenario.node[34].veinsmobility 	totalDistance 	214.41562166964
scalar LocScenario.node[34].veinsmobility 	totalCO2Emission 	39.283676851205
scalar LocScenario.node[36].appl 	generatedWSMs 	0
scalar LocScenario.node[36].appl 	receivedWSMs 	0
scalar LocScenario.node[36].appl 	generatedBSMs 	198
scalar LocScenario.node[36].appl 	receivedBSMs 	5437
scalar LocScenario.node[36].appl 	generatedWSAs 	0
scalar LocScenario.node[36].appl 	receivedWSAs 	0
scalar LocScenario.node[36].appl 	rmseSUMGPS 	1758.4634082851
scalar LocScenario.node[36].appl 	rmseSUMCP 	66548.385894413
scalar LocScenario.node[36].appl 	delaySum 	0.60989852399418
scalar LocScenario.node[36].nic.phy80211p 	busyTime 	0.028511237072568
scalar LocScenario.node[36].nic.mac1609_4 	ReceivedUnicastPackets 	0
scalar LocScenario.node[36].nic.mac1609_4 	ReceivedBroadcasts 	5437
scalar LocScenario.node[36].nic.mac1609_4 	SentPackets 	198
scalar LocScenario.node[36].nic.mac1609_4 	SNIRLostPackets 	0
scalar LocScenario.node[36].nic.mac1609_4 	RXTXLostPackets 	0
scalar LocScenario.node[36].nic.mac1609_4 	TotalLostPackets 	0
scalar LocScenario.node[36].nic.mac1609_4 	DroppedPacketsInMac 	0
scalar LocScenario.node[36].nic.mac1609_4 	TooLittleTime 	0
scalar LocScenario.node[36].nic.mac1609_4 	TimesIntoBackoff 	198
scalar LocScenario.node[36].nic.mac1609_4 	SlotsBackoff 	268
scalar LocScenario.node[36].nic.mac1609_4 	NumInternalContention 	0
scalar LocScenario.node[36].nic.mac1609_4 	totalBusyTime 	0.586238
scalar LocScenario.node[36].veinsmobility 	startTime 	18.1
scalar LocScenario.node[36].veinsmobility 	totalTime 	19.8
scalar LocScenario.node[36].veinsmobility 	stopTime 	37.932461094577
scalar LocScenario.node[36].veinsmobility 	minSpeed 	10.450090052257
scalar LocScenario.node[36].veinsmobility 	maxSpeed 	10.499764837034
scalar LocScenario.node[36].veinsmobility 	totalDistance 	208.96058703385
scalar LocScenario.node[36].veinsmobility 	totalCO2Emission 	34.126158218466
scalar LocScenario.node[38].appl 	generatedWSMs 	0
scalar LocScenario.node[38].appl 	receivedWSMs 	0
scalar LocScenario.node[38].appl 	generatedBSMs 	188
scalar LocScenario.node[38].appl 	receivedBSMs 	5257
scalar LocScenario.node[38].appl 	generatedWSAs 	0
scalar LocScenario.node[38].appl 	receivedWSAs 	0
scalar LocScenario.node[38].appl 	rmseSUMGPS 	1660.3578837236
scalar LocScenario.node[38].appl 	rmseSUMCP 	61948.720630359
scalar LocScenario.node[38].appl 	delaySum 	0.58964636230819
scalar LocScenario.node[38].nic.phy80211p 	busyTime 	0.0290311498457
scalar LocScenario.node[38].nic.mac1609_4 	ReceivedUnicastPackets 	0
scalar LocScenario.node[38].nic.mac1609_4 	ReceivedBroadcasts 	5257
scalar LocScenario.node[38].nic.mac1609_4 	SentPackets 	188
scalar LocScenario.node[38].nic.mac1609_4 	SNIRLostPackets 	0
scalar LocScenario.node[38].nic.mac1609_4 	RXTXLostPackets 	0
scalar LocScenario.node[38].nic.mac1609_4 	TotalLostPackets 	0
scalar LocScenario.node[38].nic.mac1609_4 	DroppedPacketsInMac 	0
scalar LocScenario.node[38].nic.mac1609_4 	TooLittleTime 	0
scalar LocScenario.node[38].nic.mac1609_4 	TimesIntoBackoff 	188
scalar LocScenario.node[38].nic.mac1609_4 	SlotsBackoff 	274
scalar LocScenario.node[38].nic.mac1609_4 	NumInternalContention 	0
scalar LocScenario.node[38].nic.mac1609_4 	totalBusyTime 	0.566468
scalar LocScenario.node[38].veinsmobility 	startTime 	19.1
scalar LocScenario.node[38].veinsmobility 	totalTime 	18.8
scalar LocScenario.node[38].veinsmobility 	stopTime 	37.932461094577
scalar LocScenario.node[38].veinsmobility 	minSpeed 	10.233257400323
scalar LocScenario.node[38].veinsmobility 	maxSpeed 	10.499101957411
scalar LocScenario.node[38].veinsmobility 	totalDistance 	195.28125440532
scalar LocScenario.node[38].veinsmobility 	totalCO2Emission 	32.971318882802
scalar LocScenario.node[4].appl 	generatedWSMs 	0
scalar LocScenario.node[4].appl 	receivedWSMs 	0
scalar LocScenario.node[4].appl 	generatedBSMs 	358
scalar LocScenario.node[4].appl 	receivedBSMs 	5793
scalar LocScenario.node[4].appl 	generatedWSAs 	0
scalar LocScenario.node[4].appl 	receivedWSAs 	0
scalar LocScenario.node[4].appl 	rmseSUMGPS 	53641.839455969
scalar LocScenario.node[4].appl 	rmseSUMCP 	63274.73521386
scalar LocScenario.node[4].appl 	delaySum 	0.64766619367703
scalar LocScenario.node[4].nic.phy80211p 	busyTime 	0.016813581361598
scalar LocScenario.node[4].nic.mac1609_4 	ReceivedUnicastPackets 	0
scalar LocScenario.node[4].nic.mac1609_4 	ReceivedBroadcasts 	5793
scalar LocScenario.node[4].nic.mac1609_4 	SentPackets 	358
scalar LocScenario.node[4].nic.mac1609_4 	SNIRLostPackets 	0
scalar LocScenario.node[4].nic.mac1609_4 	RXTXLostPackets 	0
scalar LocScenario.node[4].nic.mac1609_4 	TotalLostPackets 	0
scalar LocScenario.node[4].nic.mac1609_4 	DroppedPacketsInMac 	0
scalar LocScenario.node[4].nic.mac1609_4 	TooLittleTime 	0
scalar LocScenario.node[4].nic.mac1609_4 	TimesIntoBackoff 	358
scalar LocScenario.node[4].nic.mac1609_4 	SlotsBackoff 	539
scalar LocScenario.node[4].nic.mac1609_4 	NumInternalContention 	0
scalar LocScenario.node[4].nic.mac1609_4 	totalBusyTime 	0.640062
scalar LocScenario.node[4].veinsmobility 	startTime 	2.1
scalar LocScenario.node[4].veinsmobility 	totalTime 	35.8
scalar LocScenario.node[4].veinsmobility 	stopTime 	37.932461094577
scalar LocScenario.node[4].veinsmobility 	minSpeed 	10.450141019491
scalar LocScenario.node[4].veinsmobility 	maxSpeed 	10.499964151962
scalar LocScenario.node[4].veinsmobility 	totalDistance 	374.04604982045
scalar LocScenario.node[4].veinsmobility 	totalCO2Emission 	61.816154076742
scalar LocScenario.node[40].appl 	generatedWSMs 	0
scalar LocScenario.node[40].appl 	receivedWSMs 	0
scalar LocScenario.node[40].appl 	generatedBSMs 	179
scalar LocScenario.node[40].appl 	receivedBSMs 	5060
scalar LocScenario.node[40].appl 	generatedWSAs 	0
scalar LocScenario.node[40].appl 	receivedWSAs 	0
scalar LocScenario.node[40].appl 	rmseSUMGPS 	1576.2393089091
scalar LocScenario.node[40].appl 	rmseSUMCP 	64628.69915575
scalar LocScenario.node[40].appl 	delaySum 	0.56784619290194
scalar LocScenario.node[40].nic.phy80211p 	busyTime 	0.029510228409247
scalar LocScenario.node[40].nic.mac1609_4 	ReceivedUnicastPackets 	0
scalar LocScenario.node[40].nic.mac1609_4 	ReceivedBroadcasts 	5060
scalar LocScenario.node[40].nic.mac1609_4 	SentPackets 	179
scalar LocScenario.node[40].nic.mac1609_4 	SNIRLostPackets 	0
scalar LocScenario.node[40].nic.mac1609_4 	RXTXLostPackets 	0
scalar LocScenario.node[40].nic.mac1609_4 	TotalLostPackets 	0
scalar LocScenario.node[40].nic.mac1609_4 	DroppedPacketsInMac 	0
scalar LocScenario.node[40].nic.mac1609_4 	TooLittleTime 	0
scalar LocScenario.node[40].nic.mac1609_4 	TimesIntoBackoff 	179
scalar LocScenario.node[40].nic.mac1609_4 	SlotsBackoff 	275
scalar LocScenario.node[40].nic.mac1609_4 	NumInternalContention 	0
scalar LocScenario.node[40].nic.mac1609_4 	totalBusyTime 	0.545035
scalar LocScenario.node[40].veinsmobility 	startTime 	20.1
scalar LocScenario.node[40].veinsmobility 	totalTime 	17.8
scalar LocScenario.node[40].veinsmobility 	stopTime 	37.932461094577
scalar LocScenario.node[40].veinsmobility 	minSpeed 	8.347134614234
scalar LocScenario.node[40].veinsmobility 	maxSpeed 	10.496984940238
scalar LocScenario.node[40].veinsmobility 	totalDistance 	181.37737182095
scalar LocScenario.node[40].veinsmobility 	totalCO2Emission 	34.39689191883
scalar LocScenario.node[42].appl 	generatedWSMs 	0
scalar LocScenario.node[42].appl 	receivedWSMs 	0
scalar LocScenario.node[42].appl 	generatedBSMs 	168
scalar LocScenario.node[42].appl 	receivedBSMs 	4696
scalar LocScenario.node[42].appl 	generatedWSAs 	0
scalar LocScenario.node[42].appl 	receivedWSAs 	0
scalar LocScenario.node[42].appl 	rmseSUMGPS 	1463.9711141529
scalar LocScenario.node[42].appl 	rmseSUMCP 	77706.938232234
scalar LocScenario.node[42].appl 	delaySum 	0.52720603240001
scalar LocScenario.node[42].nic.phy80211p 	busyTime 	0.029014414306731
scalar LocScenario.node[42].nic.mac1609_4 	ReceivedUnicastPackets 	0
scalar LocScenario.node[42].nic.mac1609_4 	ReceivedBroadcasts 	4696
scalar LocScenario.node[42].nic.mac1609_4 	SentPackets 	168
scalar LocScenario.node[42].nic.mac1609_4 	SNIRLostPackets 	0
scalar LocScenario.node[42].nic.mac1609_4 	RXTXLostPackets 	0
scalar LocScenario.node[42].nic.mac1609_4 	TotalLostPackets 	0
scalar LocScenario.node[42].nic.mac1609_4 	DroppedPacketsInMac 	0
scalar LocScenario.node[42].nic.mac1609_4 	TooLittleTime 	0
scalar LocScenario.node[42].nic.mac1609_4 	TimesIntoBackoff 	168
scalar LocScenario.node[42].nic.mac1609_4 	SlotsBackoff 	252
scalar LocScenario.node[42].nic.mac1609_4 	NumInternalContention 	0
scalar LocScenario.node[42].nic.mac1609_4 	totalBusyTime 	0.506024
scalar LocScenario.node[42].veinsmobility 	startTime 	21.1
scalar LocScenario.node[42].veinsmobility 	totalTime 	16.8
scalar LocScenario.node[42].veinsmobility 	stopTime 	37.932461094577
scalar LocScenario.node[42].veinsmobility 	minSpeed 	6.6421694432764
scalar LocScenario.node[42].veinsmobility 	maxSpeed 	10.499795635231
scalar LocScenario.node[42].veinsmobility 	totalDistance 	170.16877984027
scalar LocScenario.node[42].veinsmobility 	totalCO2Emission 	35.971848241458
scalar LocScenario.node[44].appl 	generatedWSMs 	0
scalar LocScenario.node[44].appl 	receivedWSMs 	0
scalar LocScenario.node[44].appl 	generatedBSMs 	158
scalar LocScenario.node[44].appl 	receivedBSMs 	4490
scalar LocScenario.node[44].appl 	generatedWSAs 	0
scalar LocScenario.node[44].appl 	receivedWSAs 	0
scalar LocScenario.node[44].appl 	rmseSUMGPS 	3698.1000435966
scalar LocScenario.node[44].appl 	rmseSUMCP 	66678.764238309
scalar LocScenario.node[44].appl 	delaySum 	0.50419654436599
scalar LocScenario.node[44].nic.phy80211p 	busyTime 	0.029493835305234
scalar LocScenario.node[44].nic.mac1609_4 	ReceivedUnicastPackets 	0
scalar LocScenario.node[44].nic.mac1609_4 	ReceivedBroadcasts 	4490
scalar LocScenario.node[44].nic.mac1609_4 	SentPackets 	158
scalar LocScenario.node[44].nic.mac1609_4 	SNIRLostPackets 	0
scalar LocScenario.node[44].nic.mac1609_4 	RXTXLostPackets 	0
scalar LocScenario.node[44].nic.mac1609_4 	TotalLostPackets 	0
scalar LocScenario.node[44].nic.mac1609_4 	DroppedPacketsInMac 	0
scalar LocScenario.node[44].nic.mac1609_4 	TooLittleTime 	0
scalar LocScenario.node[44].nic.mac1609_4 	TimesIntoBackoff 	158
scalar LocScenario.node[44].nic.mac1609_4 	SlotsBackoff 	222
scalar LocScenario.node[44].nic.mac1609_4 	NumInternalContention 	0
scalar LocScenario.node[44].nic.mac1609_4 	totalBusyTime 	0.48355
scalar LocScenario.node[44].veinsmobility 	startTime 	22.1
scalar LocScenario.node[44].veinsmobility 	totalTime 	15.8
scalar LocScenario.node[44].veinsmobility 	stopTime 	37.932461094577
scalar LocScenario.node[44].veinsmobility 	minSpeed 	9.8877327856879
scalar LocScenario.node[44].veinsmobility 	maxSpeed 	10.471066119021
scalar LocScenario.node[44].veinsmobility 	totalDistance 	164.78465454308
scalar LocScenario.node[44].veinsmobility 	totalCO2Emission 	28.448565995623
scalar LocScenario.node[46].appl 	generatedWSMs 	0
scalar LocScenario.node[46].appl 	receivedWSMs 	0
scalar LocScenario.node[46].appl 	generatedBSMs 	149
scalar LocScenario.node[46].appl 	receivedBSMs 	4000
scalar LocScenario.node[46].appl 	generatedWSAs 	0
scalar LocScenario.node[46].appl 	receivedWSAs 	0
scalar LocScenario.node[46].appl 	rmseSUMGPS 	1299.2264063082
scalar LocScenario.node[46].appl 	rmseSUMCP 	66190.810853652
scalar LocScenario.node[46].appl 	delaySum 	0.44918367417104
scalar LocScenario.node[46].nic.phy80211p 	busyTime 	0.028046593033174
scalar LocScenario.node[46].nic.mac1609_4 	ReceivedUnicastPackets 	0
scalar LocScenario.node[46].nic.mac1609_4 	ReceivedBroadcasts 	4000
scalar LocScenario.node[46].nic.mac1609_4 	SentPackets 	149
scalar LocScenario.node[46].nic.mac1609_4 	SNIRLostPackets 	0
scalar LocScenario.node[46].nic.mac1609_4 	RXTXLostPackets 	0
scalar LocScenario.node[46].nic.mac1609_4 	TotalLostPackets 	0
scalar LocScenario.node[46].nic.mac1609_4 	DroppedPacketsInMac 	0
scalar LocScenario.node[46].nic.mac1609_4 	TooLittleTime 	0
scalar LocScenario.node[46].nic.mac1609_4 	TimesIntoBackoff 	149
scalar LocScenario.node[46].nic.mac1609_4 	SlotsBackoff 	220
scalar LocScenario.node[46].nic.mac1609_4 	NumInternalContention 	0
scalar LocScenario.node[46].nic.mac1609_4 	totalBusyTime 	0.431645
scalar LocScenario.node[46].veinsmobility 	startTime 	23.1
scalar LocScenario.node[46].veinsmobility 	totalTime 	14.8
scalar LocScenario.node[46].veinsmobility 	stopTime 	37.932461094577
scalar LocScenario.node[46].veinsmobility 	minSpeed 	8.1221931524846
scalar LocScenario.node[46].veinsmobility 	maxSpeed 	10.455526485818
scalar LocScenario.node[46].veinsmobility 	totalDistance 	148.47449155801
scalar LocScenario.node[46].veinsmobility 	totalCO2Emission 	29.245532146401
scalar LocScenario.node[48].appl 	generatedWSMs 	0
scalar LocScenario.node[48].appl 	receivedWSMs 	0
scalar LocScenario.node[48].appl 	generatedBSMs 	139
scalar LocScenario.node[48].appl 	receivedBSMs 	3648
scalar LocScenario.node[48].appl 	generatedWSAs 	0
scalar LocScenario.node[48].appl 	receivedWSAs 	0
scalar LocScenario.node[48].appl 	rmseSUMGPS 	1223.0779707394
scalar LocScenario.node[48].appl 	rmseSUMCP 	43758.225033692
scalar LocScenario.node[48].appl 	delaySum 	0.40996317253284
scalar LocScenario.node[48].nic.phy80211p 	busyTime 	0.027427657117989
scalar LocScenario.node[48].nic.mac1609_4 	ReceivedUnicastPackets 	0
scalar LocScenario.node[48].nic.mac1609_4 	ReceivedBroadcasts 	3648
scalar LocScenario.node[48].nic.mac1609_4 	SentPackets 	139
scalar LocScenario.node[48].nic.mac1609_4 	SNIRLostPackets 	0
scalar LocScenario.node[48].nic.mac1609_4 	RXTXLostPackets 	0
scalar LocScenario.node[48].nic.mac1609_4 	TotalLostPackets 	0
scalar LocScenario.node[48].nic.mac1609_4 	DroppedPacketsInMac 	0
scalar LocScenario.node[48].nic.mac1609_4 	TooLittleTime 	0
scalar LocScenario.node[48].nic.mac1609_4 	TimesIntoBackoff 	139
scalar LocScenario.node[48].nic.mac1609_4 	SlotsBackoff 	207
scalar LocScenario.node[48].nic.mac1609_4 	NumInternalContention 	0
scalar LocScenario.node[48].nic.mac1609_4 	totalBusyTime 	0.393987
scalar LocScenario.node[48].veinsmobility 	startTime 	24.1
scalar LocScenario.node[48].veinsmobility 	totalTime 	13.8
scalar LocScenario.node[48].veinsmobility 	stopTime 	37.932461094577
scalar LocScenario.node[48].veinsmobility 	minSpeed 	6.5977621921919
scalar LocScenario.node[48].veinsmobility 	maxSpeed 	10.499812390632
scalar LocScenario.node[48].veinsmobility 	totalDistance 	139.17728925074
scalar LocScenario.node[48].veinsmobility 	totalCO2Emission 	30.967581398354
scalar LocScenario.node[50].appl 	generatedWSMs 	0
scalar LocScenario.node[50].appl 	receivedWSMs 	0
scalar LocScenario.node[50].appl 	generatedBSMs 	128
scalar LocScenario.node[50].appl 	receivedBSMs 	3443
scalar LocScenario.node[50].appl 	generatedWSAs 	0
scalar LocScenario.node[50].appl 	receivedWSAs 	0
scalar LocScenario.node[50].appl 	rmseSUMGPS 	1114.9687687094
scalar LocScenario.node[50].appl 	rmseSUMCP 	39464.769344894
scalar LocScenario.node[50].appl 	delaySum 	0.3870306036381
scalar LocScenario.node[50].nic.phy80211p 	busyTime 	0.027903610800839
scalar LocScenario.node[50].nic.mac1609_4 	ReceivedUnicastPackets 	0
scalar LocScenario.node[50].nic.mac1609_4 	ReceivedBroadcasts 	3443
scalar LocScenario.node[50].nic.mac1609_4 	SentPackets 	128
scalar LocScenario.node[50].nic.mac1609_4 	SNIRLostPackets 	0
scalar LocScenario.node[50].nic.mac1609_4 	RXTXLostPackets 	0
scalar LocScenario.node[50].nic.mac1609_4 	TotalLostPackets 	0
scalar LocScenario.node[50].nic.mac1609_4 	DroppedPacketsInMac 	0
scalar LocScenario.node[50].nic.mac1609_4 	TooLittleTime 	0
scalar LocScenario.node[50].nic.mac1609_4 	TimesIntoBackoff 	128
scalar LocScenario.node[50].nic.mac1609_4 	SlotsBackoff 	166
scalar LocScenario.node[50].nic.mac1609_4 	NumInternalContention 	0
scalar LocScenario.node[50].nic.mac1609_4 	totalBusyTime 	0.371512
scalar LocScenario.node[50].veinsmobility 	startTime 	25.1
scalar LocScenario.node[50].veinsmobility 	totalTime 	12.8
scalar LocScenario.node[50].veinsmobility 	stopTime 	37.932461094577
scalar LocScenario.node[50].veinsmobility 	minSpeed 	9.7355617123125
scalar LocScenario.node[50].veinsmobility 	maxSpeed 	10.413198541552
scalar LocScenario.node[50].veinsmobility 	totalDistance 	129.41071369141
scalar LocScenario.node[50].veinsmobility 	totalCO2Emission 	23.314406591702
scalar LocScenario.node[52].appl 	generatedWSMs 	0
scalar LocScenario.node[52].appl 	receivedWSMs 	0
scalar LocScenario.node[52].appl 	generatedBSMs 	118
scalar LocScenario.node[52].appl 	receivedBSMs 	3051
scalar LocScenario.node[52].appl 	generatedWSAs 	0
scalar LocScenario.node[52].appl 	receivedWSAs 	0
scalar LocScenario.node[52].appl 	rmseSUMGPS 	1024.1254335045
scalar LocScenario.node[52].appl 	rmseSUMCP 	46845.004933884
scalar LocScenario.node[52].appl 	delaySum 	0.34321698872498
scalar LocScenario.node[52].nic.phy80211p 	busyTime 	0.026816399180507
scalar LocScenario.node[52].nic.mac1609_4 	ReceivedUnicastPackets 	0
scalar LocScenario.node[52].nic.mac1609_4 	ReceivedBroadcasts 	3051
scalar LocScenario.node[52].nic.mac1609_4 	SentPackets 	118
scalar LocScenario.node[52].nic.mac1609_4 	SNIRLostPackets 	0
scalar LocScenario.node[52].nic.mac1609_4 	RXTXLostPackets 	0
scalar LocScenario.node[52].nic.mac1609_4 	TotalLostPackets 	0
scalar LocScenario.node[52].nic.mac1609_4 	DroppedPacketsInMac 	0
scalar LocScenario.node[52].nic.mac1609_4 	TooLittleTime 	0
scalar LocScenario.node[52].nic.mac1609_4 	TimesIntoBackoff 	118
scalar LocScenario.node[52].nic.mac1609_4 	SlotsBackoff 	168
scalar LocScenario.node[52].nic.mac1609_4 	NumInternalContention 	0
scalar LocScenario.node[52].nic.mac1609_4 	totalBusyTime 	0.329694
scalar LocScenario.node[52].veinsmobility 	startTime 	26.1
scalar LocScenario.node[52].veinsmobility 	totalTime 	11.8
scalar LocScenario.node[52].veinsmobility 	stopTime 	37.932461094577
scalar LocScenario.node[52].veinsmobility 	minSpeed 	8.1987123370983
scalar LocScenario.node[52].veinsmobility 	maxSpeed 	10.476106528293
scalar LocScenario.node[52].veinsmobility 	totalDistance 	117.32630035022
scalar LocScenario.node[52].veinsmobility 	totalCO2Emission 	24.959872040021
scalar LocScenario.node[54].appl 	generatedWSMs 	0
scalar LocScenario.node[54].appl 	receivedWSMs 	0
scalar LocScenario.node[54].appl 	generatedBSMs 	108
scalar LocScenario.node[54].appl 	receivedBSMs 	2807
scalar LocScenario.node[54].appl 	generatedWSAs 	0
scalar LocScenario.node[54].appl 	receivedWSAs 	0
scalar LocScenario.node[54].appl 	rmseSUMGPS 	921.69286316602
scalar LocScenario.node[54].appl 	rmseSUMCP 	31687.375986135
scalar LocScenario.node[54].appl 	delaySum 	0.31594613927414
scalar LocScenario.node[54].nic.phy80211p 	busyTime 	0.026949369810905
scalar LocScenario.node[54].nic.mac1609_4 	ReceivedUnicastPackets 	0
scalar LocScenario.node[54].nic.mac1609_4 	ReceivedBroadcasts 	2807
scalar LocScenario.node[54].nic.mac1609_4 	SentPackets 	108
scalar LocScenario.node[54].nic.mac1609_4 	SNIRLostPackets 	0
scalar LocScenario.node[54].nic.mac1609_4 	RXTXLostPackets 	0
scalar LocScenario.node[54].nic.mac1609_4 	TotalLostPackets 	0
scalar LocScenario.node[54].nic.mac1609_4 	DroppedPacketsInMac 	0
scalar LocScenario.node[54].nic.mac1609_4 	TooLittleTime 	0
scalar LocScenario.node[54].nic.mac1609_4 	TimesIntoBackoff 	108
scalar LocScenario.node[54].nic.mac1609_4 	SlotsBackoff 	166
scalar LocScenario.node[54].nic.mac1609_4 	NumInternalContention 	0
scalar LocScenario.node[54].nic.mac1609_4 	totalBusyTime 	0.303268
scalar LocScenario.node[54].veinsmobility 	startTime 	27.1
scalar LocScenario.node[54].veinsmobility 	totalTime 	10.8
scalar LocScenario.node[54].veinsmobility 	stopTime 	37.932461094577
scalar LocScenario.node[54].veinsmobility 	minSpeed 	10.373721631993
scalar LocScenario.node[54].veinsmobility 	maxSpeed 	10.498642031057
scalar LocScenario.node[54].veinsmobility 	totalDistance 	115.26441754432
scalar LocScenario.node[54].veinsmobility 	totalCO2Emission 	18.613718262612
scalar LocScenario.node[56].appl 	generatedWSMs 	0
scalar LocScenario.node[56].appl 	receivedWSMs 	0
scalar LocScenario.node[56].appl 	generatedBSMs 	98
scalar LocScenario.node[56].appl 	receivedBSMs 	2499
scalar LocScenario.node[56].appl 	generatedWSAs 	0
scalar LocScenario.node[56].appl 	receivedWSAs 	0
scalar LocScenario.node[56].appl 	rmseSUMGPS 	850.60303694034
scalar LocScenario.node[56].appl 	rmseSUMCP 	39156.478061084
scalar LocScenario.node[56].appl 	delaySum 	0.28148585231303
scalar LocScenario.node[56].nic.phy80211p 	busyTime 	0.026432446312281
scalar LocScenario.node[56].nic.mac1609_4 	ReceivedUnicastPackets 	0
scalar LocScenario.node[56].nic.mac1609_4 	ReceivedBroadcasts 	2499
scalar LocScenario.node[56].nic.mac1609_4 	SentPackets 	98
scalar LocScenario.node[56].nic.mac1609_4 	SNIRLostPackets 	0
scalar LocScenario.node[56].nic.mac1609_4 	RXTXLostPackets 	0
scalar LocScenario.node[56].nic.mac1609_4 	TotalLostPackets 	0
scalar LocScenario.node[56].nic.mac1609_4 	DroppedPacketsInMac 	0
scalar LocScenario.node[56].nic.mac1609_4 	TooLittleTime 	0
scalar LocScenario.node[56].nic.mac1609_4 	TimesIntoBackoff 	98
scalar LocScenario.node[56].nic.mac1609_4 	SlotsBackoff 	131
scalar LocScenario.node[56].nic.mac1609_4 	NumInternalContention 	0
scalar LocScenario.node[56].nic.mac1609_4 	totalBusyTime 	0.270186
scalar LocScenario.node[56].veinsmobility 	startTime 	28.1
scalar LocScenario.node[56].veinsmobility 	totalTime 	9.8
scalar LocScenario.node[56].veinsmobility 	stopTime 	37.932461094577
scalar LocScenario.node[56].veinsmobility 	minSpeed 	9.9288070139025
scalar LocScenario.node[56].veinsmobility 	maxSpeed 	10.472065510374
scalar LocScenario.node[56].veinsmobility 	totalDistance 	100.93407603784
scalar LocScenario.node[56].veinsmobility 	totalCO2Emission 	17.912915980417
scalar LocScenario.node[58].appl 	generatedWSMs 	0
scalar LocScenario.node[58].appl 	receivedWSMs 	0
scalar LocScenario.node[58].appl 	generatedBSMs 	88
scalar LocScenario.node[58].appl 	receivedBSMs 	2200
scalar LocScenario.node[58].appl 	generatedWSAs 	0
scalar LocScenario.node[58].appl 	receivedWSAs 	0
scalar LocScenario.node[58].appl 	rmseSUMGPS 	801.14852312232
scalar LocScenario.node[58].appl 	rmseSUMCP 	35830.460254111
scalar LocScenario.node[58].appl 	delaySum 	0.24806878635799
scalar LocScenario.node[58].nic.phy80211p 	busyTime 	0.025904444701203
scalar LocScenario.node[58].nic.mac1609_4 	ReceivedUnicastPackets 	0
scalar LocScenario.node[58].nic.mac1609_4 	ReceivedBroadcasts 	2200
scalar LocScenario.node[58].nic.mac1609_4 	SentPackets 	88
scalar LocScenario.node[58].nic.mac1609_4 	SNIRLostPackets 	0
scalar LocScenario.node[58].nic.mac1609_4 	RXTXLostPackets 	0
scalar LocScenario.node[58].nic.mac1609_4 	TotalLostPackets 	0
scalar LocScenario.node[58].nic.mac1609_4 	DroppedPacketsInMac 	0
scalar LocScenario.node[58].nic.mac1609_4 	TooLittleTime 	0
scalar LocScenario.node[58].nic.mac1609_4 	TimesIntoBackoff 	88
scalar LocScenario.node[58].nic.mac1609_4 	SlotsBackoff 	125
scalar LocScenario.node[58].nic.mac1609_4 	NumInternalContention 	0
scalar LocScenario.node[58].nic.mac1609_4 	totalBusyTime 	0.23804
scalar LocScenario.node[58].veinsmobility 	startTime 	29.1
scalar LocScenario.node[58].veinsmobility 	totalTime 	8.8
scalar LocScenario.node[58].veinsmobility 	stopTime 	37.932461094577
scalar LocScenario.node[58].veinsmobility 	minSpeed 	7.9180880716743
scalar LocScenario.node[58].veinsmobility 	maxSpeed 	10.349676568389
scalar LocScenario.node[58].veinsmobility 	totalDistance 	84.80422834944
scalar LocScenario.node[58].veinsmobility 	totalCO2Emission 	19.849232479274
scalar LocScenario.node[6].appl 	generatedWSMs 	0
scalar LocScenario.node[6].appl 	receivedWSMs 	0
scalar LocScenario.node[6].appl 	generatedBSMs 	348
scalar LocScenario.node[6].appl 	receivedBSMs 	5911
scalar LocScenario.node[6].appl 	generatedWSAs 	0
scalar LocScenario.node[6].appl 	receivedWSAs 	0
scalar LocScenario.node[6].appl 	rmseSUMGPS 	3018.6319297424
scalar LocScenario.node[6].appl 	rmseSUMCP 	93933.327532748
scalar LocScenario.node[6].appl 	delaySum 	0.66083990895707
scalar LocScenario.node[6].nic.phy80211p 	busyTime 	0.017648595036992
scalar LocScenario.node[6].nic.mac1609_4 	ReceivedUnicastPackets 	0
scalar LocScenario.node[6].nic.mac1609_4 	ReceivedBroadcasts 	5911
scalar LocScenario.node[6].nic.mac1609_4 	SentPackets 	348
scalar LocScenario.node[6].nic.mac1609_4 	SNIRLostPackets 	0
scalar LocScenario.node[6].nic.mac1609_4 	RXTXLostPackets 	0
scalar LocScenario.node[6].nic.mac1609_4 	TotalLostPackets 	0
scalar LocScenario.node[6].nic.mac1609_4 	DroppedPacketsInMac 	0
scalar LocScenario.node[6].nic.mac1609_4 	TooLittleTime 	0
scalar LocScenario.node[6].nic.mac1609_4 	TimesIntoBackoff 	348
scalar LocScenario.node[6].nic.mac1609_4 	SlotsBackoff 	506
scalar LocScenario.node[6].nic.mac1609_4 	NumInternalContention 	0
scalar LocScenario.node[6].nic.mac1609_4 	totalBusyTime 	0.651284
scalar LocScenario.node[6].veinsmobility 	startTime 	3.1
scalar LocScenario.node[6].veinsmobility 	totalTime 	34.8
scalar LocScenario.node[6].veinsmobility 	stopTime 	37.932461094577
scalar LocScenario.node[6].veinsmobility 	minSpeed 	10.45003960008
scalar LocScenario.node[6].veinsmobility 	maxSpeed 	10.499913108384
scalar LocScenario.node[6].veinsmobility 	totalDistance 	364.68701984956
scalar LocScenario.node[6].veinsmobility 	totalCO2Emission 	59.778530392738
scalar LocScenario.node[60].appl 	generatedWSMs 	0
scalar LocScenario.node[60].appl 	receivedWSMs 	0
scalar LocScenario.node[60].appl 	generatedBSMs 	79
scalar LocScenario.node[60].appl 	receivedBSMs 	1923
scalar LocScenario.node[60].appl 	generatedWSAs 	0
scalar LocScenario.node[60].appl 	receivedWSAs 	0
scalar LocScenario.node[60].appl 	rmseSUMGPS 	700.23594843827
scalar LocScenario.node[60].appl 	rmseSUMCP 	24083.967279994
scalar LocScenario.node[60].appl 	delaySum 	0.21702544683608
scalar LocScenario.node[60].nic.phy80211p 	busyTime 	0.025533736789126
scalar LocScenario.node[60].nic.mac1609_4 	ReceivedUnicastPackets 	0
scalar LocScenario.node[60].nic.mac1609_4 	ReceivedBroadcasts 	1923
scalar LocScenario.node[60].nic.mac1609_4 	SentPackets 	79
scalar LocScenario.node[60].nic.mac1609_4 	SNIRLostPackets 	0
scalar LocScenario.node[60].nic.mac1609_4 	RXTXLostPackets 	0
scalar LocScenario.node[60].nic.mac1609_4 	TotalLostPackets 	0
scalar LocScenario.node[60].nic.mac1609_4 	DroppedPacketsInMac 	0
scalar LocScenario.node[60].nic.mac1609_4 	TooLittleTime 	0
scalar LocScenario.node[60].nic.mac1609_4 	TimesIntoBackoff 	79
scalar LocScenario.node[60].nic.mac1609_4 	SlotsBackoff 	119
scalar LocScenario.node[60].nic.mac1609_4 	NumInternalContention 	0
scalar LocScenario.node[60].nic.mac1609_4 	totalBusyTime 	0.208287
scalar LocScenario.node[60].veinsmobility 	startTime 	30.1
scalar LocScenario.node[60].veinsmobility 	totalTime 	7.8
scalar LocScenario.node[60].veinsmobility 	stopTime 	37.932461094577
scalar LocScenario.node[60].veinsmobility 	minSpeed 	10.450177523226
scalar LocScenario.node[60].veinsmobility 	maxSpeed 	10.499777346005
scalar LocScenario.node[60].veinsmobility 	totalDistance 	84.134534243545
scalar LocScenario.node[60].veinsmobility 	totalCO2Emission 	13.240840312397
scalar LocScenario.node[62].appl 	generatedWSMs 	0
scalar LocScenario.node[62].appl 	receivedWSMs 	0
scalar LocScenario.node[62].appl 	generatedBSMs 	68
scalar LocScenario.node[62].appl 	receivedBSMs 	1634
scalar LocScenario.node[62].appl 	generatedWSAs 	0
scalar LocScenario.node[62].appl 	receivedWSAs 	0
scalar LocScenario.node[62].appl 	rmseSUMGPS 	594.78308071403
scalar LocScenario.node[62].appl 	rmseSUMCP 	24503.406077538
scalar LocScenario.node[62].appl 	delaySum 	0.18476060220214
scalar LocScenario.node[62].nic.phy80211p 	busyTime 	0.024871857687544
scalar LocScenario.node[62].nic.mac1609_4 	ReceivedUnicastPackets 	0
scalar LocScenario.node[62].nic.mac1609_4 	ReceivedBroadcasts 	1634
scalar LocScenario.node[62].nic.mac1609_4 	SentPackets 	68
scalar LocScenario.node[62].nic.mac1609_4 	SNIRLostPackets 	0
scalar LocScenario.node[62].nic.mac1609_4 	RXTXLostPackets 	0
scalar LocScenario.node[62].nic.mac1609_4 	TotalLostPackets 	0
scalar LocScenario.node[62].nic.mac1609_4 	DroppedPacketsInMac 	0
scalar LocScenario.node[62].nic.mac1609_4 	TooLittleTime 	0
scalar LocScenario.node[62].nic.mac1609_4 	TimesIntoBackoff 	68
scalar LocScenario.node[62].nic.mac1609_4 	SlotsBackoff 	109
scalar LocScenario.node[62].nic.mac1609_4 	NumInternalContention 	0
scalar LocScenario.node[62].nic.mac1609_4 	totalBusyTime 	0.177076
scalar LocScenario.node[62].veinsmobility 	startTime 	31.1
scalar LocScenario.node[62].veinsmobility 	totalTime 	6.8
scalar LocScenario.node[62].veinsmobility 	stopTime 	37.932461094577
scalar LocScenario.node[62].veinsmobility 	minSpeed 	8.5437828813266
scalar LocScenario.node[62].veinsmobility 	maxSpeed 	10.488227325771
scalar LocScenario.node[62].veinsmobility 	totalDistance 	68.480301860124
scalar LocScenario.node[62].veinsmobility 	totalCO2Emission 	14.338220019395
scalar LocScenario.node[64].appl 	generatedWSMs 	0
scalar LocScenario.node[64].appl 	receivedWSMs 	0
scalar LocScenario.node[64].appl 	generatedBSMs 	58
scalar LocScenario.node[64].appl 	receivedBSMs 	1366
scalar LocScenario.node[64].appl 	generatedWSAs 	0
scalar LocScenario.node[64].appl 	receivedWSAs 	0
scalar LocScenario.node[64].appl 	rmseSUMGPS 	531.28810588948
scalar LocScenario.node[64].appl 	rmseSUMCP 	21154.864680371
scalar LocScenario.node[64].appl 	delaySum 	0.15483353123992
scalar LocScenario.node[64].nic.phy80211p 	busyTime 	0.024357470662272
scalar LocScenario.node[64].nic.mac1609_4 	ReceivedUnicastPackets 	0
scalar LocScenario.node[64].nic.mac1609_4 	ReceivedBroadcasts 	1366
scalar LocScenario.node[64].nic.mac1609_4 	SentPackets 	58
scalar LocScenario.node[64].nic.mac1609_4 	SNIRLostPackets 	0
scalar LocScenario.node[64].nic.mac1609_4 	RXTXLostPackets 	0
scalar LocScenario.node[64].nic.mac1609_4 	TotalLostPackets 	0
scalar LocScenario.node[64].nic.mac1609_4 	DroppedPacketsInMac 	0
scalar LocScenario.node[64].nic.mac1609_4 	TooLittleTime 	0
scalar LocScenario.node[64].nic.mac1609_4 	TimesIntoBackoff 	58
scalar LocScenario.node[64].nic.mac1609_4 	SlotsBackoff 	92
scalar LocScenario.node[64].nic.mac1609_4 	NumInternalContention 	0
scalar LocScenario.node[64].nic.mac1609_4 	totalBusyTime 	0.148154
scalar LocScenario.node[64].veinsmobility 	startTime 	32.1
scalar LocScenario.node[64].veinsmobility 	totalTime 	5.8
scalar LocScenario.node[64].veinsmobility 	stopTime 	37.932461094577
scalar LocScenario.node[64].veinsmobility 	minSpeed 	10.45013318446
scalar LocScenario.node[64].veinsmobility 	maxSpeed 	10.49922769604
scalar LocScenario.node[64].veinsmobility 	totalDistance 	62.901492457419
scalar LocScenario.node[64].veinsmobility 	totalCO2Emission 	9.8889421598438
scalar LocScenario.node[66].appl 	generatedWSMs 	0
scalar LocScenario.node[66].appl 	receivedWSMs 	0
scalar LocScenario.node[66].appl 	generatedBSMs 	48
scalar LocScenario.node[66].appl 	receivedBSMs 	1107
scalar LocScenario.node[66].appl 	generatedWSAs 	0
scalar LocScenario.node[66].appl 	receivedWSAs 	0
scalar LocScenario.node[66].appl 	rmseSUMGPS 	407.18061271187
scalar LocScenario.node[66].appl 	rmseSUMCP 	13930.7284427
scalar LocScenario.node[66].appl 	delaySum 	0.1258687777271
scalar LocScenario.node[66].nic.phy80211p 	busyTime 	0.023823885541303
scalar LocScenario.node[66].nic.mac1609_4 	ReceivedUnicastPackets 	0
scalar LocScenario.node[66].nic.mac1609_4 	ReceivedBroadcasts 	1107
scalar LocScenario.node[66].nic.mac1609_4 	SentPackets 	48
scalar LocScenario.node[66].nic.mac1609_4 	SNIRLostPackets 	0
scalar LocScenario.node[66].nic.mac1609_4 	RXTXLostPackets 	0
scalar LocScenario.node[66].nic.mac1609_4 	TotalLostPackets 	0
scalar LocScenario.node[66].nic.mac1609_4 	DroppedPacketsInMac 	0
scalar LocScenario.node[66].nic.mac1609_4 	TooLittleTime 	0
scalar LocScenario.node[66].nic.mac1609_4 	TimesIntoBackoff 	48
scalar LocScenario.node[66].nic.mac1609_4 	SlotsBackoff 	72
scalar LocScenario.node[66].nic.mac1609_4 	NumInternalContention 	0
scalar LocScenario.node[66].nic.mac1609_4 	totalBusyTime 	0.120168
scalar LocScenario.node[66].veinsmobility 	startTime 	33.1
scalar LocScenario.node[66].veinsmobility 	totalTime 	4.8
scalar LocScenario.node[66].veinsmobility 	stopTime 	37.932461094577
scalar LocScenario.node[66].veinsmobility 	minSpeed 	8.358591187842
scalar LocScenario.node[66].veinsmobility 	maxSpeed 	10.083002172766
scalar LocScenario.node[66].veinsmobility 	totalDistance 	45.169113362579
scalar LocScenario.node[66].veinsmobility 	totalCO2Emission 	11.642849715031
scalar LocScenario.node[68].appl 	generatedWSMs 	0
scalar LocScenario.node[68].appl 	receivedWSMs 	0
scalar LocScenario.node[68].appl 	generatedBSMs 	38
scalar LocScenario.node[68].appl 	receivedBSMs 	897
scalar LocScenario.node[68].appl 	generatedWSAs 	0
scalar LocScenario.node[68].appl 	receivedWSAs 	0
scalar LocScenario.node[68].appl 	rmseSUMGPS 	337.65879202965
scalar LocScenario.node[68].appl 	rmseSUMCP 	8825.7749018365
scalar LocScenario.node[68].appl 	delaySum 	0.10242057235602
scalar LocScenario.node[68].nic.phy80211p 	busyTime 	0.024341538686983
scalar LocScenario.node[68].nic.mac1609_4 	ReceivedUnicastPackets 	0
scalar LocScenario.node[68].nic.mac1609_4 	ReceivedBroadcasts 	897
scalar LocScenario.node[68].nic.mac1609_4 	SentPackets 	38
scalar LocScenario.node[68].nic.mac1609_4 	SNIRLostPackets 	0
scalar LocScenario.node[68].nic.mac1609_4 	RXTXLostPackets 	0
scalar LocScenario.node[68].nic.mac1609_4 	TotalLostPackets 	0
scalar LocScenario.node[68].nic.mac1609_4 	DroppedPacketsInMac 	0
scalar LocScenario.node[68].nic.mac1609_4 	TooLittleTime 	0
scalar LocScenario.node[68].nic.mac1609_4 	TimesIntoBackoff 	38
scalar LocScenario.node[68].nic.mac1609_4 	SlotsBackoff 	46
scalar LocScenario.node[68].nic.mac1609_4 	NumInternalContention 	0
scalar LocScenario.node[68].nic.mac1609_4 	totalBusyTime 	0.097278
scalar LocScenario.node[68].veinsmobility 	startTime 	34.1
scalar LocScenario.node[68].veinsmobility 	totalTime 	3.8
scalar LocScenario.node[68].veinsmobility 	stopTime 	37.932461094577
scalar LocScenario.node[68].veinsmobility 	minSpeed 	10.456843509467
scalar LocScenario.node[68].veinsmobility 	maxSpeed 	10.499473574979
scalar LocScenario.node[68].veinsmobility 	totalDistance 	39.822330236086
scalar LocScenario.node[68].veinsmobility 	totalCO2Emission 	6.2852187282363
scalar LocScenario.node[70].appl 	generatedWSMs 	0
scalar LocScenario.node[70].appl 	receivedWSMs 	0
scalar LocScenario.node[70].appl 	generatedBSMs 	28
scalar LocScenario.node[70].appl 	receivedBSMs 	620
scalar LocScenario.node[70].appl 	generatedWSAs 	0
scalar LocScenario.node[70].appl 	receivedWSAs 	0
scalar LocScenario.node[70].appl 	rmseSUMGPS 	236.35381308545
scalar LocScenario.node[70].appl 	rmseSUMCP 	6398.8275803392
scalar LocScenario.node[70].appl 	delaySum 	0.071394393529104
scalar LocScenario.node[70].nic.phy80211p 	busyTime 	0.022764655134523
scalar LocScenario.node[70].nic.mac1609_4 	ReceivedUnicastPackets 	0
scalar LocScenario.node[70].nic.mac1609_4 	ReceivedBroadcasts 	620
scalar LocScenario.node[70].nic.mac1609_4 	SentPackets 	28
scalar LocScenario.node[70].nic.mac1609_4 	SNIRLostPackets 	0
scalar LocScenario.node[70].nic.mac1609_4 	RXTXLostPackets 	0
scalar LocScenario.node[70].nic.mac1609_4 	TotalLostPackets 	0
scalar LocScenario.node[70].nic.mac1609_4 	DroppedPacketsInMac 	0
scalar LocScenario.node[70].nic.mac1609_4 	TooLittleTime 	0
scalar LocScenario.node[70].nic.mac1609_4 	TimesIntoBackoff 	28
scalar LocScenario.node[70].nic.mac1609_4 	SlotsBackoff 	40
scalar LocScenario.node[70].nic.mac1609_4 	NumInternalContention 	0
scalar LocScenario.node[70].nic.mac1609_4 	totalBusyTime 	0.06742
scalar LocScenario.node[70].veinsmobility 	startTime 	35.1
scalar LocScenario.node[70].veinsmobility 	totalTime 	2.8
scalar LocScenario.node[70].veinsmobility 	stopTime 	37.932461094577
scalar LocScenario.node[70].veinsmobility 	minSpeed 	8.5368882713891
scalar LocScenario.node[70].veinsmobility 	maxSpeed 	10.481332715834
scalar LocScenario.node[70].veinsmobility 	totalDistance 	28.585214342863
scalar LocScenario.node[70].veinsmobility 	totalCO2Emission 	5.818307760301
scalar LocScenario.node[72].appl 	generatedWSMs 	0
scalar LocScenario.node[72].appl 	receivedWSMs 	0
scalar LocScenario.node[72].appl 	generatedBSMs 	18
scalar LocScenario.node[72].appl 	receivedBSMs 	392
scalar LocScenario.node[72].appl 	generatedWSAs 	0
scalar LocScenario.node[72].appl 	receivedWSAs 	0
scalar LocScenario.node[72].appl 	rmseSUMGPS 	157.6755874491
scalar LocScenario.node[72].appl 	rmseSUMCP 	3961.3556000586
scalar LocScenario.node[72].appl 	delaySum 	0.043781626109059
scalar LocScenario.node[72].nic.phy80211p 	busyTime 	0.022247675609948
scalar LocScenario.node[72].nic.mac1609_4 	ReceivedUnicastPackets 	0
scalar LocScenario.node[72].nic.mac1609_4 	ReceivedBroadcasts 	392
scalar LocScenario.node[72].nic.mac1609_4 	SentPackets 	18
scalar LocScenario.node[72].nic.mac1609_4 	SNIRLostPackets 	0
scalar LocScenario.node[72].nic.mac1609_4 	RXTXLostPackets 	0
scalar LocScenario.node[72].nic.mac1609_4 	TotalLostPackets 	0
scalar LocScenario.node[72].nic.mac1609_4 	DroppedPacketsInMac 	0
scalar LocScenario.node[72].nic.mac1609_4 	TooLittleTime 	0
scalar LocScenario.node[72].nic.mac1609_4 	TimesIntoBackoff 	36
scalar LocScenario.node[72].nic.mac1609_4 	SlotsBackoff 	47
scalar LocScenario.node[72].nic.mac1609_4 	NumInternalContention 	0
scalar LocScenario.node[72].nic.mac1609_4 	totalBusyTime 	0.042658
scalar LocScenario.node[72].veinsmobility 	startTime 	36.1
scalar LocScenario.node[72].veinsmobility 	totalTime 	1.8
scalar LocScenario.node[72].veinsmobility 	stopTime 	37.932461094577
scalar LocScenario.node[72].veinsmobility 	minSpeed 	10.452128765325
scalar LocScenario.node[72].veinsmobility 	maxSpeed 	10.499336887989
scalar LocScenario.node[72].veinsmobility 	totalDistance 	21.189269976056
scalar LocScenario.node[72].veinsmobility 	totalCO2Emission 	2.9684840298807
scalar LocScenario.node[74].appl 	generatedWSMs 	0
scalar LocScenario.node[74].appl 	receivedWSMs 	0
scalar LocScenario.node[74].appl 	generatedBSMs 	9
scalar LocScenario.node[74].appl 	receivedBSMs 	181
scalar LocScenario.node[74].appl 	generatedWSAs 	0
scalar LocScenario.node[74].appl 	receivedWSAs 	0
scalar LocScenario.node[74].appl 	rmseSUMGPS 	75.428433238331
scalar LocScenario.node[74].appl 	rmseSUMCP 	1836.1064029179
scalar LocScenario.node[74].appl 	delaySum 	0.021093096026043
scalar LocScenario.node[74].nic.phy80211p 	busyTime 	0.022612468165332
scalar LocScenario.node[74].nic.mac1609_4 	ReceivedUnicastPackets 	0
scalar LocScenario.node[74].nic.mac1609_4 	ReceivedBroadcasts 	181
scalar LocScenario.node[74].nic.mac1609_4 	SentPackets 	9
scalar LocScenario.node[74].nic.mac1609_4 	SNIRLostPackets 	0
scalar LocScenario.node[74].nic.mac1609_4 	RXTXLostPackets 	0
scalar LocScenario.node[74].nic.mac1609_4 	TotalLostPackets 	0
scalar LocScenario.node[74].nic.mac1609_4 	DroppedPacketsInMac 	0
scalar LocScenario.node[74].nic.mac1609_4 	TooLittleTime 	0
scalar LocScenario.node[74].nic.mac1609_4 	TimesIntoBackoff 	9
scalar LocScenario.node[74].nic.mac1609_4 	SlotsBackoff 	19
scalar LocScenario.node[74].nic.mac1609_4 	NumInternalContention 	0
scalar LocScenario.node[74].nic.mac1609_4 	totalBusyTime 	0.019769
scalar LocScenario.node[74].veinsmobility 	startTime 	37.1
scalar LocScenario.node[74].veinsmobility 	totalTime 	0.8
scalar LocScenario.node[74].veinsmobility 	stopTime 	37.932461094577
scalar LocScenario.node[74].veinsmobility 	minSpeed 	10.237379961779
scalar LocScenario.node[74].veinsmobility 	maxSpeed 	10.302816042041
scalar LocScenario.node[74].veinsmobility 	totalDistance 	8.2270328056832
scalar LocScenario.node[74].veinsmobility 	totalCO2Emission 	1.1126196835863
scalar LocScenario.node[8].appl 	generatedWSMs 	0
scalar LocScenario.node[8].appl 	receivedWSMs 	0
scalar LocScenario.node[8].appl 	generatedBSMs 	338
scalar LocScenario.node[8].appl 	receivedBSMs 	6136
scalar LocScenario.node[8].appl 	generatedWSAs 	0
scalar LocScenario.node[8].appl 	receivedWSAs 	0
scalar LocScenario.node[8].appl 	rmseSUMGPS 	27795.354678458
scalar LocScenario.node[8].appl 	rmseSUMCP 	100784.53416154
scalar LocScenario.node[8].appl 	delaySum 	1.4859883922014e+214
scalar LocScenario.node[8].nic.phy80211p 	busyTime 	0.018861885282778
scalar LocScenario.node[8].nic.mac1609_4 	ReceivedUnicastPackets 	0
scalar LocScenario.node[8].nic.mac1609_4 	ReceivedBroadcasts 	6136
scalar LocScenario.node[8].nic.mac1609_4 	SentPackets 	338
scalar LocScenario.node[8].nic.mac1609_4 	SNIRLostPackets 	0
scalar LocScenario.node[8].nic.mac1609_4 	RXTXLostPackets 	0
scalar LocScenario.node[8].nic.mac1609_4 	TotalLostPackets 	0
scalar LocScenario.node[8].nic.mac1609_4 	DroppedPacketsInMac 	0
scalar LocScenario.node[8].nic.mac1609_4 	TooLittleTime 	0
scalar LocScenario.node[8].nic.mac1609_4 	TimesIntoBackoff 	338
scalar LocScenario.node[8].nic.mac1609_4 	SlotsBackoff 	506
scalar LocScenario.node[8].nic.mac1609_4 	NumInternalContention 	0
scalar LocScenario.node[8].nic.mac1609_4 	totalBusyTime 	0.673634
scalar LocScenario.node[8].veinsmobility 	startTime 	4.1
scalar LocScenario.node[8].veinsmobility 	totalTime 	33.8
scalar LocScenario.node[8].veinsmobility 	stopTime 	37.932461094577
scalar LocScenario.node[8].veinsmobility 	minSpeed 	10.450026087707
scalar LocScenario.node[8].veinsmobility 	maxSpeed 	10.499910899089
scalar LocScenario.node[8].veinsmobility 	totalDistance 	353.05213330463
scalar LocScenario.node[8].veinsmobility 	totalCO2Emission 	58.149981354854
scalar LocScenario.node[10].appl 	generatedWSMs 	0
scalar LocScenario.node[10].appl 	receivedWSMs 	0
scalar LocScenario.node[10].appl 	generatedBSMs 	328
scalar LocScenario.node[10].appl 	receivedBSMs 	6150
scalar LocScenario.node[10].appl 	generatedWSAs 	0
scalar LocScenario.node[10].appl 	receivedWSAs 	0
scalar LocScenario.node[10].appl 	rmseSUMGPS 	3677.2701243196
scalar LocScenario.node[10].appl 	rmseSUMCP 	89289.006854065
scalar LocScenario.node[10].appl 	delaySum 	0.68746143707391
scalar LocScenario.node[10].nic.phy80211p 	busyTime 	0.019480720563638
scalar LocScenario.node[10].nic.mac1609_4 	ReceivedUnicastPackets 	0
scalar LocScenario.node[10].nic.mac1609_4 	ReceivedBroadcasts 	6150
scalar LocScenario.node[10].nic.mac1609_4 	SentPackets 	328
scalar LocScenario.node[10].nic.mac1609_4 	SNIRLostPackets 	0
scalar LocScenario.node[10].nic.mac1609_4 	RXTXLostPackets 	0
scalar LocScenario.node[10].nic.mac1609_4 	TotalLostPackets 	0
scalar LocScenario.node[10].nic.mac1609_4 	DroppedPacketsInMac 	0
scalar LocScenario.node[10].nic.mac1609_4 	TooLittleTime 	0
scalar LocScenario.node[10].nic.mac1609_4 	TimesIntoBackoff 	328
scalar LocScenario.node[10].nic.mac1609_4 	SlotsBackoff 	492
scalar LocScenario.node[10].nic.mac1609_4 	NumInternalContention 	0
scalar LocScenario.node[10].nic.mac1609_4 	totalBusyTime 	0.67404
scalar LocScenario.node[10].veinsmobility 	startTime 	5.1
scalar LocScenario.node[10].veinsmobility 	totalTime 	32.8
scalar LocScenario.node[10].veinsmobility 	stopTime 	37.932461094577
scalar LocScenario.node[10].veinsmobility 	minSpeed 	10.450002551789
scalar LocScenario.node[10].veinsmobility 	maxSpeed 	10.499574420589
scalar LocScenario.node[10].veinsmobility 	totalDistance 	346.13444572037
scalar LocScenario.node[10].veinsmobility 	totalCO2Emission 	56.719821516035
scalar LocScenario.node[12].appl 	generatedWSMs 	0
scalar LocScenario.node[12].appl 	receivedWSMs 	0
scalar LocScenario.node[12].appl 	generatedBSMs 	318
scalar LocScenario.node[12].appl 	receivedBSMs 	6282
scalar LocScenario.node[12].appl 	generatedWSAs 	0
scalar LocScenario.node[12].appl 	receivedWSAs 	0
scalar LocScenario.node[12].appl 	rmseSUMGPS 	2786.1503969479
scalar LocScenario.node[12].appl 	rmseSUMCP 	90145.480306144
scalar LocScenario.node[12].appl 	delaySum 	0.70227726329294
scalar LocScenario.node[12].nic.phy80211p 	busyTime 	0.02052395503002
scalar LocScenario.node[12].nic.mac1609_4 	ReceivedUnicastPackets 	0
scalar LocScenario.node[12].nic.mac1609_4 	ReceivedBroadcasts 	6282
scalar LocScenario.node[12].nic.mac1609_4 	SentPackets 	318
scalar LocScenario.node[12].nic.mac1609_4 	SNIRLostPackets 	0
scalar LocScenario.node[12].nic.mac1609_4 	RXTXLostPackets 	0
scalar LocScenario.node[12].nic.mac1609_4 	TotalLostPackets 	0
scalar LocScenario.node[12].nic.mac1609_4 	DroppedPacketsInMac 	0
scalar LocScenario.node[12].nic.mac1609_4 	TooLittleTime 	0
scalar LocScenario.node[12].nic.mac1609_4 	TimesIntoBackoff 	318
scalar LocScenario.node[12].nic.mac1609_4 	SlotsBackoff 	502
scalar LocScenario.node[12].nic.mac1609_4 	NumInternalContention 	0
scalar LocScenario.node[12].nic.mac1609_4 	totalBusyTime 	0.686718
scalar LocScenario.node[12].veinsmobility 	startTime 	6.1
scalar LocScenario.node[12].veinsmobility 	totalTime 	31.8
scalar LocScenario.node[12].veinsmobility 	stopTime 	37.932461094577
scalar LocScenario.node[12].veinsmobility 	minSpeed 	10.450082256005
scalar LocScenario.node[12].veinsmobility 	maxSpeed 	10.49980698236
scalar LocScenario.node[12].veinsmobility 	totalDistance 	332.1889816929
scalar LocScenario.node[12].veinsmobility 	totalCO2Emission 	54.705567854893
scalar LocScenario.node[14].appl 	generatedWSMs 	0
scalar LocScenario.node[14].appl 	receivedWSMs 	0
scalar LocScenario.node[14].appl 	generatedBSMs 	309
scalar LocScenario.node[14].appl 	receivedBSMs 	6322
scalar LocScenario.node[14].appl 	generatedWSAs 	0
scalar LocScenario.node[14].appl 	receivedWSAs 	0
scalar LocScenario.node[14].appl 	rmseSUMGPS 	5001.506916961
scalar LocScenario.node[14].appl 	rmseSUMCP 	81224.123908103
scalar LocScenario.node[14].appl 	delaySum 	0.70663287585699
scalar LocScenario.node[14].nic.phy80211p 	busyTime 	0.021324538381259
scalar LocScenario.node[14].nic.mac1609_4 	ReceivedUnicastPackets 	0
scalar LocScenario.node[14].nic.mac1609_4 	ReceivedBroadcasts 	6322
scalar LocScenario.node[14].nic.mac1609_4 	SentPackets 	309
scalar LocScenario.node[14].nic.mac1609_4 	SNIRLostPackets 	0
scalar LocScenario.node[14].nic.mac1609_4 	RXTXLostPackets 	0
scalar LocScenario.node[14].nic.mac1609_4 	TotalLostPackets 	0
scalar LocScenario.node[14].nic.mac1609_4 	DroppedPacketsInMac 	0
scalar LocScenario.node[14].nic.mac1609_4 	TooLittleTime 	0
scalar LocScenario.node[14].nic.mac1609_4 	TimesIntoBackoff 	309
scalar LocScenario.node[14].nic.mac1609_4 	SlotsBackoff 	493
scalar LocScenario.node[14].nic.mac1609_4 	NumInternalContention 	0
scalar LocScenario.node[14].nic.mac1609_4 	totalBusyTime 	0.689933
scalar LocScenario.node[14].veinsmobility 	startTime 	7.1
scalar LocScenario.node[14].veinsmobility 	totalTime 	30.8
scalar LocScenario.node[14].veinsmobility 	stopTime 	37.932461094577
scalar LocScenario.node[14].veinsmobility 	minSpeed 	10.450007308309
scalar LocScenario.node[14].veinsmobility 	maxSpeed 	10.499966789223
scalar LocScenario.node[14].veinsmobility 	totalDistance 	322.77949910869
scalar LocScenario.node[14].veinsmobility 	totalCO2Emission 	53.125895078116
scalar LocScenario.node[16].appl 	generatedWSMs 	0
scalar LocScenario.node[16].appl 	receivedWSMs 	0
scalar LocScenario.node[16].appl 	generatedBSMs 	298
scalar LocScenario.node[16].appl 	receivedBSMs 	6354
scalar LocScenario.node[16].appl 	generatedWSAs 	0
scalar LocScenario.node[16].appl 	receivedWSAs 	0
scalar LocScenario.node[16].appl 	rmseSUMGPS 	4868.328884388
scalar LocScenario.node[16].appl 	rmseSUMCP 	96931.753978086
scalar LocScenario.node[16].appl 	delaySum 	1.5510648130818e+223
scalar LocScenario.node[16].nic.phy80211p 	busyTime 	0.022150904610418
scalar LocScenario.node[16].nic.mac1609_4 	ReceivedUnicastPackets 	0
scalar LocScenario.node[16].nic.mac1609_4 	ReceivedBroadcasts 	6354
scalar LocScenario.node[16].nic.mac1609_4 	SentPackets 	298
scalar LocScenario.node[16].nic.mac1609_4 	SNIRLostPackets 	0
scalar LocScenario.node[16].nic.mac1609_4 	RXTXLostPackets 	0
scalar LocScenario.node[16].nic.mac1609_4 	TotalLostPackets 	0
scalar LocScenario.node[16].nic.mac1609_4 	DroppedPacketsInMac 	0
scalar LocScenario.node[16].nic.mac1609_4 	TooLittleTime 	0
scalar LocScenario.node[16].nic.mac1609_4 	TimesIntoBackoff 	298
scalar LocScenario.node[16].nic.mac1609_4 	SlotsBackoff 	416
scalar LocScenario.node[16].nic.mac1609_4 	NumInternalContention 	0
scalar LocScenario.node[16].nic.mac1609_4 	totalBusyTime 	0.692106
scalar LocScenario.node[16].veinsmobility 	startTime 	8.1
scalar LocScenario.node[16].veinsmobility 	totalTime 	29.8
scalar LocScenario.node[16].veinsmobility 	stopTime 	37.932461094577
scalar LocScenario.node[16].veinsmobility 	minSpeed 	8.5265457001683
scalar LocScenario.node[16].veinsmobility 	maxSpeed 	10.499369559728
scalar LocScenario.node[16].veinsmobility 	totalDistance 	308.73213508373
scalar LocScenario.node[16].veinsmobility 	totalCO2Emission 	54.758212260894
scalar LocScenario.node[18].appl 	generatedWSMs 	0
scalar LocScenario.node[18].appl 	receivedWSMs 	0
scalar LocScenario.node[18].appl 	generatedBSMs 	288
scalar LocScenario.node[18].appl 	receivedBSMs 	6389
scalar LocScenario.node[18].appl 	generatedWSAs 	0
scalar LocScenario.node[18].appl 	receivedWSAs 	0
scalar LocScenario.node[18].appl 	rmseSUMGPS 	2494.5584493307
scalar LocScenario.node[18].appl 	rmseSUMCP 	89714.796340579
scalar LocScenario.node[18].appl 	delaySum 	0.71410536735589
scalar LocScenario.node[18].nic.phy80211p 	busyTime 	0.023045413911091
scalar LocScenario.node[18].nic.mac1609_4 	ReceivedUnicastPackets 	0
scalar LocScenario.node[18].nic.mac1609_4 	ReceivedBroadcasts 	6389
scalar LocScenario.node[18].nic.mac1609_4 	SentPackets 	288
scalar LocScenario.node[18].nic.mac1609_4 	SNIRLostPackets 	0
scalar LocScenario.node[18].nic.mac1609_4 	RXTXLostPackets 	0
scalar LocScenario.node[18].nic.mac1609_4 	TotalLostPackets 	0
scalar LocScenario.node[18].nic.mac1609_4 	DroppedPacketsInMac 	0
scalar LocScenario.node[18].nic.mac1609_4 	TooLittleTime 	0
scalar LocScenario.node[18].nic.mac1609_4 	TimesIntoBackoff 	288
scalar LocScenario.node[18].nic.mac1609_4 	SlotsBackoff 	450
scalar LocScenario.node[18].nic.mac1609_4 	NumInternalContention 	0
scalar LocScenario.node[18].nic.mac1609_4 	totalBusyTime 	0.694696
scalar LocScenario.node[18].veinsmobility 	startTime 	9.1
scalar LocScenario.node[18].veinsmobility 	totalTime 	28.8
scalar LocScenario.node[18].veinsmobility 	stopTime 	37.932461094577
scalar LocScenario.node[18].veinsmobility 	minSpeed 	6.4480030900814
scalar LocScenario.node[18].veinsmobility 	maxSpeed 	10.499901936145
scalar LocScenario.node[18].veinsmobility 	totalDistance 	292.2789787553
scalar LocScenario.node[18].veinsmobility 	totalCO2Emission 	57.211273718085
scalar LocScenario.node[1].appl 	generatedWSMs 	0
scalar LocScenario.node[1].appl 	receivedWSMs 	0
scalar LocScenario.node[1].appl 	generatedBSMs 	378
scalar LocScenario.node[1].appl 	receivedBSMs 	5324
scalar LocScenario.node[1].appl 	generatedWSAs 	0
[...]
scalar LocScenario.node[67].nic.mac1609_4 	SlotsBackoff 	78
scalar LocScenario.node[67].nic.mac1609_4 	NumInternalContention 	0
scalar LocScenario.node[67].nic.mac1609_4 	totalBusyTime 	0.119233
scalar LocScenario.node[67].veinsmobility 	startTime 	33.1
scalar LocScenario.node[67].veinsmobility 	totalTime 	4.8
scalar LocScenario.node[67].veinsmobility 	stopTime 	37.932461094577
scalar LocScenario.node[67].veinsmobility 	minSpeed 	9.8973892863218
scalar LocScenario.node[67].veinsmobility 	maxSpeed 	10.212891363682
scalar LocScenario.node[67].veinsmobility 	totalDistance 	48.353280041855
scalar LocScenario.node[67].veinsmobility 	totalCO2Emission 	8.7991493230391
scalar LocScenario.node[69].appl 	generatedWSMs 	0
scalar LocScenario.node[69].appl 	receivedWSMs 	0
scalar LocScenario.node[69].appl 	generatedBSMs 	39
scalar LocScenario.node[69].appl 	receivedBSMs 	851
scalar LocScenario.node[69].appl 	generatedWSAs 	0
scalar LocScenario.node[69].appl 	receivedWSAs 	0
scalar LocScenario.node[69].appl 	rmseSUMGPS 	366.67197390192
scalar LocScenario.node[69].appl 	rmseSUMCP 	8913.3178079251
scalar LocScenario.node[69].appl 	delaySum 	0.09638586986506
scalar LocScenario.node[69].nic.phy80211p 	busyTime 	0.023093254651753
scalar LocScenario.node[69].nic.mac1609_4 	ReceivedUnicastPackets 	0
scalar LocScenario.node[69].nic.mac1609_4 	ReceivedBroadcasts 	851
scalar LocScenario.node[69].nic.mac1609_4 	SentPackets 	39
scalar LocScenario.node[69].nic.mac1609_4 	SNIRLostPackets 	0
scalar LocScenario.node[69].nic.mac1609_4 	RXTXLostPackets 	0
scalar LocScenario.node[69].nic.mac1609_4 	TotalLostPackets 	0
scalar LocScenario.node[69].nic.mac1609_4 	DroppedPacketsInMac 	0
scalar LocScenario.node[69].nic.mac1609_4 	TooLittleTime 	0
scalar LocScenario.node[69].nic.mac1609_4 	TimesIntoBackoff 	39
scalar LocScenario.node[69].nic.mac1609_4 	SlotsBackoff 	55
scalar LocScenario.node[69].nic.mac1609_4 	NumInternalContention 	0
scalar LocScenario.node[69].nic.mac1609_4 	totalBusyTime 	0.092599
scalar LocScenario.node[69].veinsmobility 	startTime 	34.1
scalar LocScenario.node[69].veinsmobility 	totalTime 	3.8
scalar LocScenario.node[69].veinsmobility 	stopTime 	37.932461094577
scalar LocScenario.node[69].veinsmobility 	minSpeed 	10.451285330404
scalar LocScenario.node[69].veinsmobility 	maxSpeed 	10.498718245944
scalar LocScenario.node[69].veinsmobility 	totalDistance 	39.683794159689
scalar LocScenario.node[69].veinsmobility 	totalCO2Emission 	6.3488391670781
scalar LocScenario.node[71].appl 	generatedWSMs 	0
scalar LocScenario.node[71].appl 	receivedWSMs 	0
scalar LocScenario.node[71].appl 	generatedBSMs 	28
scalar LocScenario.node[71].appl 	receivedBSMs 	619
scalar LocScenario.node[71].appl 	generatedWSAs 	0
scalar LocScenario.node[71].appl 	receivedWSAs 	0
scalar LocScenario.node[71].appl 	rmseSUMGPS 	256.49793730541
scalar LocScenario.node[71].appl 	rmseSUMCP 	7807.4403454143
scalar LocScenario.node[71].appl 	delaySum 	-157132.61069608
scalar LocScenario.node[71].nic.phy80211p 	busyTime 	0.022727937948823
scalar LocScenario.node[71].nic.mac1609_4 	ReceivedUnicastPackets 	0
scalar LocScenario.node[71].nic.mac1609_4 	ReceivedBroadcasts 	619
scalar LocScenario.node[71].nic.mac1609_4 	SentPackets 	28
scalar LocScenario.node[71].nic.mac1609_4 	SNIRLostPackets 	0
scalar LocScenario.node[71].nic.mac1609_4 	RXTXLostPackets 	0
scalar LocScenario.node[71].nic.mac1609_4 	TotalLostPackets 	0
scalar LocScenario.node[71].nic.mac1609_4 	DroppedPacketsInMac 	0
scalar LocScenario.node[71].nic.mac1609_4 	TooLittleTime 	0
scalar LocScenario.node[71].nic.mac1609_4 	TimesIntoBackoff 	28
scalar LocScenario.node[71].nic.mac1609_4 	SlotsBackoff 	43
scalar LocScenario.node[71].nic.mac1609_4 	NumInternalContention 	0
scalar LocScenario.node[71].nic.mac1609_4 	totalBusyTime 	0.067316
scalar LocScenario.node[71].veinsmobility 	startTime 	35.1
scalar LocScenario.node[71].veinsmobility 	totalTime 	2.8
scalar LocScenario.node[71].veinsmobility 	stopTime 	37.932461094577
scalar LocScenario.node[71].veinsmobility 	minSpeed 	10.452309111203
scalar LocScenario.node[71].veinsmobility 	maxSpeed 	10.499403923017
scalar LocScenario.node[71].veinsmobility 	totalDistance 	29.422101639781
scalar LocScenario.node[71].veinsmobility 	totalCO2Emission 	4.5644856179673
scalar LocScenario.node[73].appl 	generatedWSMs 	0
scalar LocScenario.node[73].appl 	receivedWSMs 	0
scalar LocScenario.node[73].appl 	generatedBSMs 	18
scalar LocScenario.node[73].appl 	receivedBSMs 	393
scalar LocScenario.node[73].appl 	generatedWSAs 	0
scalar LocScenario.node[73].appl 	receivedWSAs 	0
scalar LocScenario.node[73].appl 	rmseSUMGPS 	163.51576949025
scalar LocScenario.node[73].appl 	rmseSUMCP 	3627.1630106077
scalar LocScenario.node[73].appl 	delaySum 	0.044630521887008
scalar LocScenario.node[73].nic.phy80211p 	busyTime 	0.022304429884464
scalar LocScenario.node[73].nic.mac1609_4 	ReceivedUnicastPackets 	0
scalar LocScenario.node[73].nic.mac1609_4 	ReceivedBroadcasts 	393
scalar LocScenario.node[73].nic.mac1609_4 	SentPackets 	18
scalar LocScenario.node[73].nic.mac1609_4 	SNIRLostPackets 	0
scalar LocScenario.node[73].nic.mac1609_4 	RXTXLostPackets 	0
scalar LocScenario.node[73].nic.mac1609_4 	TotalLostPackets 	0
scalar LocScenario.node[73].nic.mac1609_4 	DroppedPacketsInMac 	0
scalar LocScenario.node[73].nic.mac1609_4 	TooLittleTime 	0
scalar LocScenario.node[73].nic.mac1609_4 	TimesIntoBackoff 	18
scalar LocScenario.node[73].nic.mac1609_4 	SlotsBackoff 	26
scalar LocScenario.node[73].nic.mac1609_4 	NumInternalContention 	0
scalar LocScenario.node[73].nic.mac1609_4 	totalBusyTime 	0.042762
scalar LocScenario.node[73].veinsmobility 	startTime 	36.1
scalar LocScenario.node[73].veinsmobility 	totalTime 	1.8
scalar LocScenario.node[73].veinsmobility 	stopTime 	37.932461094577
scalar LocScenario.node[73].veinsmobility 	minSpeed 	10.453268710757
scalar LocScenario.node[73].veinsmobility 	maxSpeed 	10.496385711827
scalar LocScenario.node[73].veinsmobility 	totalDistance 	18.795580746242
scalar LocScenario.node[73].veinsmobility 	totalCO2Emission 	2.9544568835725
scalar LocScenario.node[75].appl 	generatedWSMs 	0
scalar LocScenario.node[75].appl 	receivedWSMs 	0
scalar LocScenario.node[75].appl 	generatedBSMs 	8
scalar LocScenario.node[75].appl 	receivedBSMs 	175
scalar LocScenario.node[75].appl 	generatedWSAs 	0
scalar LocScenario.node[75].appl 	receivedWSAs 	0
scalar LocScenario.node[75].appl 	rmseSUMGPS 	69.924188607562
scalar LocScenario.node[75].appl 	rmseSUMCP 	2260.5871351612
scalar LocScenario.node[75].appl 	delaySum 	5895000000.0198
scalar LocScenario.node[75].nic.phy80211p 	busyTime 	0.021862883585266
scalar LocScenario.node[75].nic.mac1609_4 	ReceivedUnicastPackets 	0
scalar LocScenario.node[75].nic.mac1609_4 	ReceivedBroadcasts 	175
scalar LocScenario.node[75].nic.mac1609_4 	SentPackets 	8
scalar LocScenario.node[75].nic.mac1609_4 	SNIRLostPackets 	0
scalar LocScenario.node[75].nic.mac1609_4 	RXTXLostPackets 	0
scalar LocScenario.node[75].nic.mac1609_4 	TotalLostPackets 	0
scalar LocScenario.node[75].nic.mac1609_4 	DroppedPacketsInMac 	0
scalar LocScenario.node[75].nic.mac1609_4 	TooLittleTime 	0
scalar LocScenario.node[75].nic.mac1609_4 	TimesIntoBackoff 	8
scalar LocScenario.node[75].nic.mac1609_4 	SlotsBackoff 	14
scalar LocScenario.node[75].nic.mac1609_4 	NumInternalContention 	0
scalar LocScenario.node[75].nic.mac1609_4 	totalBusyTime 	0.01904
scalar LocScenario.node[75].veinsmobility 	startTime 	37.1
scalar LocScenario.node[75].veinsmobility 	totalTime 	0.8
scalar LocScenario.node[75].veinsmobility 	stopTime 	37.932461094577
scalar LocScenario.node[75].veinsmobility 	minSpeed 	8.3127945491255
scalar LocScenario.node[75].veinsmobility 	maxSpeed 	8.8234352031167
scalar LocScenario.node[75].veinsmobility 	totalDistance 	6.8217511468146
scalar LocScenario.node[75].veinsmobility 	totalCO2Emission 	2.1669907982621
scalar LocScenario.node[9].appl 	generatedWSMs 	0
scalar LocScenario.node[9].appl 	receivedWSMs 	0
scalar LocScenario.node[9].appl 	generatedBSMs 	338
scalar LocScenario.node[9].appl 	receivedBSMs 	6065
scalar LocScenario.node[9].appl 	generatedWSAs 	0
scalar LocScenario.node[9].appl 	receivedWSAs 	0
scalar LocScenario.node[9].appl 	rmseSUMGPS 	3082.1147548932
scalar LocScenario.node[9].appl 	rmseSUMCP 	83480.514155495
scalar LocScenario.node[9].appl 	delaySum 	0.71565743120804
scalar LocScenario.node[9].nic.phy80211p 	busyTime 	0.018646707321599
scalar LocScenario.node[9].nic.mac1609_4 	ReceivedUnicastPackets 	0
scalar LocScenario.node[9].nic.mac1609_4 	ReceivedBroadcasts 	6065
scalar LocScenario.node[9].nic.mac1609_4 	SentPackets 	338
scalar LocScenario.node[9].nic.mac1609_4 	SNIRLostPackets 	0
scalar LocScenario.node[9].nic.mac1609_4 	RXTXLostPackets 	0
scalar LocScenario.node[9].nic.mac1609_4 	TotalLostPackets 	0
scalar LocScenario.node[9].nic.mac1609_4 	DroppedPacketsInMac 	0
scalar LocScenario.node[9].nic.mac1609_4 	TooLittleTime 	0
scalar LocScenario.node[9].nic.mac1609_4 	TimesIntoBackoff 	338
scalar LocScenario.node[9].nic.mac1609_4 	SlotsBackoff 	506
scalar LocScenario.node[9].nic.mac1609_4 	NumInternalContention 	0
scalar LocScenario.node[9].nic.mac1609_4 	totalBusyTime 	0.66625
scalar LocScenario.node[9].veinsmobility 	startTime 	4.1
scalar LocScenario.node[9].veinsmobility 	totalTime 	33.8
scalar LocScenario.node[9].veinsmobility 	stopTime 	37.932461094577
scalar LocScenario.node[9].veinsmobility 	minSpeed 	8.3423014477217
scalar LocScenario.node[9].veinsmobility 	maxSpeed 	10.499761581095
scalar LocScenario.node[9].veinsmobility 	totalDistance 	348.95192433771
scalar LocScenario.node[9].veinsmobility 	totalCO2Emission 	62.88114910642
scalar LocScenario.node[11].appl 	generatedWSMs 	0
scalar LocScenario.node[11].appl 	receivedWSMs 	0
scalar LocScenario.node[11].appl 	generatedBSMs 	329
scalar LocScenario.node[11].appl 	receivedBSMs 	6119
scalar LocScenario.node[11].appl 	generatedWSAs 	0
scalar LocScenario.node[11].appl 	receivedWSAs 	0
scalar LocScenario.node[11].appl 	rmseSUMGPS 	5085.2277445516
scalar LocScenario.node[11].appl 	rmseSUMCP 	88416.05126198
scalar LocScenario.node[11].appl 	delaySum 	0.7217168522992
scalar LocScenario.node[11].nic.phy80211p 	busyTime 	0.019385692658449
scalar LocScenario.node[11].nic.mac1609_4 	ReceivedUnicastPackets 	0
scalar LocScenario.node[11].nic.mac1609_4 	ReceivedBroadcasts 	6119
scalar LocScenario.node[11].nic.mac1609_4 	SentPackets 	329
scalar LocScenario.node[11].nic.mac1609_4 	SNIRLostPackets 	0
scalar LocScenario.node[11].nic.mac1609_4 	RXTXLostPackets 	0
scalar LocScenario.node[11].nic.mac1609_4 	TotalLostPackets 	0
scalar LocScenario.node[11].nic.mac1609_4 	DroppedPacketsInMac 	0
scalar LocScenario.node[11].nic.mac1609_4 	TooLittleTime 	0
scalar LocScenario.node[11].nic.mac1609_4 	TimesIntoBackoff 	329
scalar LocScenario.node[11].nic.mac1609_4 	SlotsBackoff 	492
scalar LocScenario.node[11].nic.mac1609_4 	NumInternalContention 	0
scalar LocScenario.node[11].nic.mac1609_4 	totalBusyTime 	0.670921
scalar LocScenario.node[11].veinsmobility 	startTime 	5.1
scalar LocScenario.node[11].veinsmobility 	totalTime 	32.8
scalar LocScenario.node[11].veinsmobility 	stopTime 	37.932461094577
scalar LocScenario.node[11].veinsmobility 	minSpeed 	10.450098725781
scalar LocScenario.node[11].veinsmobility 	maxSpeed 	10.499997232482
scalar LocScenario.node[11].veinsmobility 	totalDistance 	342.55240627857
scalar LocScenario.node[11].veinsmobility 	totalCO2Emission 	56.284432734422
scalar LocScenario.node[13].appl 	generatedWSMs 	0
scalar LocScenario.node[13].appl 	receivedWSMs 	0
scalar LocScenario.node[13].appl 	generatedBSMs 	318
scalar LocScenario.node[13].appl 	receivedBSMs 	6249
scalar LocScenario.node[13].appl 	generatedWSAs 	0
scalar LocScenario.node[13].appl 	receivedWSAs 	0
scalar LocScenario.node[13].appl 	rmseSUMGPS 	2917.2650493207
scalar LocScenario.node[13].appl 	rmseSUMCP 	84140.361234319
scalar LocScenario.node[13].appl 	delaySum 	0.73635678330127
scalar LocScenario.node[13].nic.phy80211p 	busyTime 	0.020419407662787
scalar LocScenario.node[13].nic.mac1609_4 	ReceivedUnicastPackets 	0
scalar LocScenario.node[13].nic.mac1609_4 	ReceivedBroadcasts 	6249
scalar LocScenario.node[13].nic.mac1609_4 	SentPackets 	318
scalar LocScenario.node[13].nic.mac1609_4 	SNIRLostPackets 	0
scalar LocScenario.node[13].nic.mac1609_4 	RXTXLostPackets 	0
scalar LocScenario.node[13].nic.mac1609_4 	TotalLostPackets 	0
scalar LocScenario.node[13].nic.mac1609_4 	DroppedPacketsInMac 	0
scalar LocScenario.node[13].nic.mac1609_4 	TooLittleTime 	0
scalar LocScenario.node[13].nic.mac1609_4 	TimesIntoBackoff 	318
scalar LocScenario.node[13].nic.mac1609_4 	SlotsBackoff 	479
scalar LocScenario.node[13].nic.mac1609_4 	NumInternalContention 	0
scalar LocScenario.node[13].nic.mac1609_4 	totalBusyTime 	0.683286
scalar LocScenario.node[13].veinsmobility 	startTime 	6.1
scalar LocScenario.node[13].veinsmobility 	totalTime 	31.8
scalar LocScenario.node[13].veinsmobility 	stopTime 	37.932461094577
scalar LocScenario.node[13].veinsmobility 	minSpeed 	8.3220838200296
scalar LocScenario.node[13].veinsmobility 	maxSpeed 	10.499019475118
scalar LocScenario.node[13].veinsmobility 	totalDistance 	326.03054497052
scalar LocScenario.node[13].veinsmobility 	totalCO2Emission 	59.363622200847
scalar LocScenario.node[15].appl 	generatedWSMs 	0
scalar LocScenario.node[15].appl 	receivedWSMs 	0
scalar LocScenario.node[15].appl 	generatedBSMs 	308
scalar LocScenario.node[15].appl 	receivedBSMs 	6241
scalar LocScenario.node[15].appl 	generatedWSAs 	0
scalar LocScenario.node[15].appl 	receivedWSAs 	0
scalar LocScenario.node[15].appl 	rmseSUMGPS 	2809.8912015977
scalar LocScenario.node[15].appl 	rmseSUMCP 	78332.356558454
scalar LocScenario.node[15].appl 	delaySum 	0.73526696497915
scalar LocScenario.node[15].nic.phy80211p 	busyTime 	0.02105469290981
scalar LocScenario.node[15].nic.mac1609_4 	ReceivedUnicastPackets 	0
scalar LocScenario.node[15].nic.mac1609_4 	ReceivedBroadcasts 	6241
scalar LocScenario.node[15].nic.mac1609_4 	SentPackets 	308
scalar LocScenario.node[15].nic.mac1609_4 	SNIRLostPackets 	0
scalar LocScenario.node[15].nic.mac1609_4 	RXTXLostPackets 	0
scalar LocScenario.node[15].nic.mac1609_4 	TotalLostPackets 	0
scalar LocScenario.node[15].nic.mac1609_4 	DroppedPacketsInMac 	0
scalar LocScenario.node[15].nic.mac1609_4 	TooLittleTime 	0
scalar LocScenario.node[15].nic.mac1609_4 	TimesIntoBackoff 	308
scalar LocScenario.node[15].nic.mac1609_4 	SlotsBackoff 	467
scalar LocScenario.node[15].nic.mac1609_4 	NumInternalContention 	0
scalar LocScenario.node[15].nic.mac1609_4 	totalBusyTime 	0.681404
scalar LocScenario.node[15].veinsmobility 	startTime 	7.1
scalar LocScenario.node[15].veinsmobility 	totalTime 	30.8
scalar LocScenario.node[15].veinsmobility 	stopTime 	37.932461094577
scalar LocScenario.node[15].veinsmobility 	minSpeed 	10.450100299821
scalar LocScenario.node[15].veinsmobility 	maxSpeed 	10.499696973059
scalar LocScenario.node[15].veinsmobility 	totalDistance 	323.6341508387
scalar LocScenario.node[15].veinsmobility 	totalCO2Emission 	53.08564612834
scalar LocScenario.node[17].appl 	generatedWSMs 	0
scalar LocScenario.node[17].appl 	receivedWSMs 	0
scalar LocScenario.node[17].appl 	generatedBSMs 	299
scalar LocScenario.node[17].appl 	receivedBSMs 	6259
scalar LocScenario.node[17].appl 	generatedWSAs 	0
scalar LocScenario.node[17].appl 	receivedWSAs 	0
scalar LocScenario.node[17].appl 	rmseSUMGPS 	2731.6234642882
scalar LocScenario.node[17].appl 	rmseSUMCP 	84002.794785068
scalar LocScenario.node[17].appl 	delaySum 	0.73729225771638
scalar LocScenario.node[17].nic.phy80211p 	busyTime 	0.021823207878693
scalar LocScenario.node[17].nic.mac1609_4 	ReceivedUnicastPackets 	0
scalar LocScenario.node[17].nic.mac1609_4 	ReceivedBroadcasts 	6259
scalar LocScenario.node[17].nic.mac1609_4 	SentPackets 	299
scalar LocScenario.node[17].nic.mac1609_4 	SNIRLostPackets 	0
scalar LocScenario.node[17].nic.mac1609_4 	RXTXLostPackets 	0
scalar LocScenario.node[17].nic.mac1609_4 	TotalLostPackets 	0
scalar LocScenario.node[17].nic.mac1609_4 	DroppedPacketsInMac 	0
scalar LocScenario.node[17].nic.mac1609_4 	TooLittleTime 	0
scalar LocScenario.node[17].nic.mac1609_4 	TimesIntoBackoff 	299
scalar LocScenario.node[17].nic.mac1609_4 	SlotsBackoff 	466
scalar LocScenario.node[17].nic.mac1609_4 	NumInternalContention 	0
scalar LocScenario.node[17].nic.mac1609_4 	totalBusyTime 	0.682331
scalar LocScenario.node[17].veinsmobility 	startTime 	8.1
scalar LocScenario.node[17].veinsmobility 	totalTime 	29.8
scalar LocScenario.node[17].veinsmobility 	stopTime 	37.932461094577
scalar LocScenario.node[17].veinsmobility 	minSpeed 	10.180215522098
scalar LocScenario.node[17].veinsmobility 	maxSpeed 	10.49992839219
scalar LocScenario.node[17].veinsmobility 	totalDistance 	309.51301518546
scalar LocScenario.node[17].veinsmobility 	totalCO2Emission 	52.280264871835
scalar LocScenario.node[19].appl 	generatedWSMs 	0
scalar LocScenario.node[19].appl 	receivedWSMs 	0
scalar LocScenario.node[19].appl 	generatedBSMs 	288
scalar LocScenario.node[19].appl 	receivedBSMs 	6270
scalar LocScenario.node[19].appl 	generatedWSAs 	0
scalar LocScenario.node[19].appl 	receivedWSAs 	0
scalar LocScenario.node[19].appl 	rmseSUMGPS 	5832.3097037689
scalar LocScenario.node[19].appl 	rmseSUMCP 	80171.940798139
scalar LocScenario.node[19].appl 	delaySum 	0.73839023029604
scalar LocScenario.node[19].nic.phy80211p 	busyTime 	0.022619782538184
scalar LocScenario.node[19].nic.mac1609_4 	ReceivedUnicastPackets 	0
scalar LocScenario.node[19].nic.mac1609_4 	ReceivedBroadcasts 	6270
scalar LocScenario.node[19].nic.mac1609_4 	SentPackets 	288
scalar LocScenario.node[19].nic.mac1609_4 	SNIRLostPackets 	0
scalar LocScenario.node[19].nic.mac1609_4 	RXTXLostPackets 	0
scalar LocScenario.node[19].nic.mac1609_4 	TotalLostPackets 	0
scalar LocScenario.node[19].nic.mac1609_4 	DroppedPacketsInMac 	0
scalar LocScenario.node[19].nic.mac1609_4 	TooLittleTime 	0
scalar LocScenario.node[19].nic.mac1609_4 	TimesIntoBackoff 	288
scalar LocScenario.node[19].nic.mac1609_4 	SlotsBackoff 	429
scalar LocScenario.node[19].nic.mac1609_4 	NumInternalContention 	0
scalar LocScenario.node[19].nic.mac1609_4 	totalBusyTime 	0.68232
scalar LocScenario.node[19].veinsmobility 	startTime 	9.1
scalar LocScenario.node[19].veinsmobility 	totalTime 	28.8
scalar LocScenario.node[19].veinsmobility 	stopTime 	37.932461094577
scalar LocScenario.node[19].veinsmobility 	minSpeed 	10.450119994453
scalar LocScenario.node[19].veinsmobility 	maxSpeed 	10.499944190844
scalar LocScenario.node[19].veinsmobility 	totalDistance 	302.61942900499
scalar LocScenario.node[19].veinsmobility 	totalCO2Emission 	49.765488551068
scalar LocScenario.outagesServer.appl 	generatedWSMs 	4290295992
scalar LocScenario.outagesServer.appl 	receivedWSMs 	4290295992
scalar LocScenario.outagesServer.appl 	generatedBSMs 	4290295992
scalar LocScenario.outagesServer.appl 	receivedBSMs 	4290295992
scalar LocScenario.outagesServer.appl 	generatedWSAs 	4290295992
scalar LocScenario.outagesServer.appl 	receivedWSAs 	4290295992
scalar LocScenario.outagesServer.nic.phy80211p 	busyTime 	0
scalar LocScenario.outagesServer.nic.mac1609_4 	ReceivedUnicastPackets 	0
scalar LocScenario.outagesServer.nic.mac1609_4 	ReceivedBroadcasts 	0
scalar LocScenario.outagesServer.nic.mac1609_4 	SentPackets 	0
scalar LocScenario.outagesServer.nic.mac1609_4 	SNIRLostPackets 	0
scalar LocScenario.outagesServer.nic.mac1609_4 	RXTXLostPackets 	0
scalar LocScenario.outagesServer.nic.mac1609_4 	TotalLostPackets 	0
scalar LocScenario.outagesServer.nic.mac1609_4 	DroppedPacketsInMac 	0
scalar LocScenario.outagesServer.nic.mac1609_4 	TooLittleTime 	0
scalar LocScenario.outagesServer.nic.mac1609_4 	TimesIntoBackoff 	0
scalar LocScenario.outagesServer.nic.mac1609_4 	SlotsBackoff 	0
scalar LocScenario.outagesServer.nic.mac1609_4 	NumInternalContention 	0
scalar LocScenario.outagesServer.nic.mac1609_4 	totalBusyTime 	0
