version 2
run DMAT-84-20171113-08:40:46-1679
attr configname DMAT
attr datetime 20171113-08:40:46
attr experiment DMAT
attr hops 4
attr inifile omnetpp.ini
attr iterationvars "$logVehPeriod=10, $hops=4"
attr iterationvars2 "$logVehPeriod=10, $hops=4, $repetition=4"
attr logVehPeriod 10
attr measurement "$logVehPeriod=10, $hops=4"
attr network com.liborio.cooppos.LocScenario
attr processid 1679
attr repetition 4
attr replication #4
attr resultdir results
attr runnumber 84
attr seedset 4
param **.coreDebug false
param **.debug false
param *.annotations.draw false
param *.connectionManager.drawMaxIntfDist false
param *.connectionManager.maxInterfDist 600m
param *.connectionManager.sendDirect true
param *.manager.autoShutdown true
param *.manager.host "\"localhost\""
param *.manager.launchConfig "xmldoc(\"dmat-\"+string(${logVehPeriod = 15, 10, 5, 3, 1})+\".launchd.xml\")"
param *.manager.port 9999
param *.manager.updateInterval 0.1s
param *.node[*].appl.beaconInterval 0.1s
param *.node[*].appl.dataOnSch false
param *.node[*].appl.headerLength "80 bit"
param *.node[*].appl.hops "${hops = 1, 2, 3, 4, 5}"
param *.node[*].appl.logVehPeriod ${logVehPeriod}
param *.node[*].appl.seedPar ${repetition}
param *.node[*].appl.sendBeacons true
param *.node[*].applType "\"Communication\""
param *.node[*].nic.mac1609_4.bitrate 6Mbps
param *.node[*].nic.mac1609_4.txPower 20mW
param *.node[*].nic.mac1609_4.useServiceChannel false
param *.node[*].nic.phy80211p.analogueModels "xmldoc(\"config.xml\")"
param *.node[*].nic.phy80211p.antenna "xmldoc(\"antenna.xml\", \"/root/Antenna[@id='monopole']\")"
param *.node[*].nic.phy80211p.decider "xmldoc(\"config.xml\")"
param *.node[*].nic.phy80211p.sensitivity -84.39dBm
param *.node[*].nic.phy80211p.thermalNoise -110dBm
param *.node[*].nic.phy80211p.usePropagationDelay true
param *.node[*].nic.phy80211p.useThermalNoise true
param *.node[*].veinsmobility.x 0
param *.node[*].veinsmobility.y 0
param *.node[*].veinsmobility.z 1.895
param *.node[*].veinsmobilityType.debug true
param *.outagesServer.appl.beaconInterval 0.1s
param *.outagesServer.appl.beaconPriority 3
param *.outagesServer.appl.dataOnSch false
param *.outagesServer.appl.dataPriority 2
param *.outagesServer.appl.headerLength "80 bit"
param *.outagesServer.appl.sendBeacons false
param *.outagesServer.applType "\"Outages\""
param *.outagesServer.mobility.x 5000.0
param *.outagesServer.mobility.y 5000.0
param *.outagesServer.mobility.z 3
param *.outagesServer.nic.mac1609_4.bitrate 6Mbps
param *.outagesServer.nic.mac1609_4.txPower 20mW
param *.outagesServer.nic.mac1609_4.useServiceChannel false
param *.outagesServer.nic.phy80211p.analogueModels "xmldoc(\"config.xml\")"
param *.outagesServer.nic.phy80211p.antenna "xmldoc(\"antenna.xml\", \"/root/Antenna[@id='monopole']\")"
param *.outagesServer.nic.phy80211p.decider "xmldoc(\"config.xml\")"
param *.outagesServer.nic.phy80211p.sensitivity -84.39dBm
param *.outagesServer.nic.phy80211p.thermalNoise -110dBm
param *.outagesServer.nic.phy80211p.usePropagationDelay true
param *.outagesServer.nic.phy80211p.useThermalNoise true
param *.playgroundSizeX 20000m
param *.playgroundSizeY 20000m
param *.playgroundSizeZ 50m

scalar . 	hops 	4
scalar . 	logVehPeriod 	10
scalar LocScenario.node[1].appl 	generatedWSMs 	0
scalar LocScenario.node[1].appl 	receivedWSMs 	0
scalar LocScenario.node[1].appl 	generatedBSMs 	2040
scalar LocScenario.node[1].appl 	receivedBSMs 	7983
scalar LocScenario.node[1].appl 	generatedWSAs 	0
scalar LocScenario.node[1].appl 	receivedWSAs 	0
scalar LocScenario.node[1].appl 	rmseSUMGPS 	574952.53348675
scalar LocScenario.node[1].appl 	rmseSUMCP 	575483.4429033
scalar LocScenario.node[1].appl 	delaySum 	0.89429593739164
scalar LocScenario.node[1].nic.phy80211p 	busyTime 	0.0040697647058821
scalar LocScenario.node[1].nic.mac1609_4 	ReceivedUnicastPackets 	0
scalar LocScenario.node[1].nic.mac1609_4 	ReceivedBroadcasts 	7983
scalar LocScenario.node[1].nic.mac1609_4 	SentPackets 	2040
scalar LocScenario.node[1].nic.mac1609_4 	SNIRLostPackets 	0
scalar LocScenario.node[1].nic.mac1609_4 	RXTXLostPackets 	0
scalar LocScenario.node[1].nic.mac1609_4 	TotalLostPackets 	0
scalar LocScenario.node[1].nic.mac1609_4 	DroppedPacketsInMac 	0
scalar LocScenario.node[1].nic.mac1609_4 	TooLittleTime 	0
scalar LocScenario.node[1].nic.mac1609_4 	TimesIntoBackoff 	2040
scalar LocScenario.node[1].nic.mac1609_4 	SlotsBackoff 	3068
scalar LocScenario.node[1].nic.mac1609_4 	NumInternalContention 	0
scalar LocScenario.node[1].nic.mac1609_4 	totalBusyTime 	1.044432
scalar LocScenario.node[1].veinsmobility 	startTime 	0.1
scalar LocScenario.node[1].veinsmobility 	totalTime 	203.9
scalar LocScenario.node[1].veinsmobility 	stopTime 	204.1
scalar LocScenario.node[1].veinsmobility 	minSpeed 	10.450011455035
scalar LocScenario.node[1].veinsmobility 	maxSpeed 	10.499954818445
scalar LocScenario.node[1].veinsmobility 	totalDistance 	2138.7396280053
scalar LocScenario.node[1].veinsmobility 	totalCO2Emission 	352.194070215
scalar LocScenario.node[3].appl 	generatedWSMs 	0
scalar LocScenario.node[3].appl 	receivedWSMs 	0
scalar LocScenario.node[3].appl 	generatedBSMs 	2040
scalar LocScenario.node[3].appl 	receivedBSMs 	10157
scalar LocScenario.node[3].appl 	generatedWSAs 	0
scalar LocScenario.node[3].appl 	receivedWSAs 	0
scalar LocScenario.node[3].appl 	rmseSUMGPS 	981366.6086182
scalar LocScenario.node[3].appl 	rmseSUMCP 	537523.05692589
scalar LocScenario.node[3].appl 	delaySum 	1.1386333427966
scalar LocScenario.node[3].nic.phy80211p 	busyTime 	0.0051780784313726
scalar LocScenario.node[3].nic.mac1609_4 	ReceivedUnicastPackets 	0
scalar LocScenario.node[3].nic.mac1609_4 	ReceivedBroadcasts 	10157
scalar LocScenario.node[3].nic.mac1609_4 	SentPackets 	2040
scalar LocScenario.node[3].nic.mac1609_4 	SNIRLostPackets 	0
scalar LocScenario.node[3].nic.mac1609_4 	RXTXLostPackets 	0
scalar LocScenario.node[3].nic.mac1609_4 	TotalLostPackets 	0
scalar LocScenario.node[3].nic.mac1609_4 	DroppedPacketsInMac 	0
scalar LocScenario.node[3].nic.mac1609_4 	TooLittleTime 	0
scalar LocScenario.node[3].nic.mac1609_4 	TimesIntoBackoff 	2040
scalar LocScenario.node[3].nic.mac1609_4 	SlotsBackoff 	2992
scalar LocScenario.node[3].nic.mac1609_4 	NumInternalContention 	0
scalar LocScenario.node[3].nic.mac1609_4 	totalBusyTime 	1.270528
scalar LocScenario.node[3].veinsmobility 	startTime 	10.1
scalar LocScenario.node[3].veinsmobility 	totalTime 	203.9
scalar LocScenario.node[3].veinsmobility 	stopTime 	214.1
scalar LocScenario.node[3].veinsmobility 	minSpeed 	10.450084633485
scalar LocScenario.node[3].veinsmobility 	maxSpeed 	10.499910594383
scalar LocScenario.node[3].veinsmobility 	totalDistance 	2133.8638611557
scalar LocScenario.node[3].veinsmobility 	totalCO2Emission 	351.6584125922
scalar LocScenario.node[5].appl 	generatedWSMs 	0
scalar LocScenario.node[5].appl 	receivedWSMs 	0
scalar LocScenario.node[5].appl 	generatedBSMs 	2040
scalar LocScenario.node[5].appl 	receivedBSMs 	12096
scalar LocScenario.node[5].appl 	generatedWSAs 	0
scalar LocScenario.node[5].appl 	receivedWSAs 	0
scalar LocScenario.node[5].appl 	rmseSUMGPS 	1019679.6447569
scalar LocScenario.node[5].appl 	rmseSUMCP 	12500417.937103
scalar LocScenario.node[5].appl 	delaySum 	1.3548862321381
scalar LocScenario.node[5].nic.phy80211p 	busyTime 	0.0061665882352951
scalar LocScenario.node[5].nic.mac1609_4 	ReceivedUnicastPackets 	0
scalar LocScenario.node[5].nic.mac1609_4 	ReceivedBroadcasts 	12096
scalar LocScenario.node[5].nic.mac1609_4 	SentPackets 	2040
scalar LocScenario.node[5].nic.mac1609_4 	SNIRLostPackets 	0
scalar LocScenario.node[5].nic.mac1609_4 	RXTXLostPackets 	0
scalar LocScenario.node[5].nic.mac1609_4 	TotalLostPackets 	0
scalar LocScenario.node[5].nic.mac1609_4 	DroppedPacketsInMac 	0
scalar LocScenario.node[5].nic.mac1609_4 	TooLittleTime 	0
scalar LocScenario.node[5].nic.mac1609_4 	TimesIntoBackoff 	2040
scalar LocScenario.node[5].nic.mac1609_4 	SlotsBackoff 	3105
scalar LocScenario.node[5].nic.mac1609_4 	NumInternalContention 	0
scalar LocScenario.node[5].nic.mac1609_4 	totalBusyTime 	1.472184
scalar LocScenario.node[5].veinsmobility 	startTime 	20.1
scalar LocScenario.node[5].veinsmobility 	totalTime 	203.9
scalar LocScenario.node[5].veinsmobility 	stopTime 	224.1
scalar LocScenario.node[5].veinsmobility 	minSpeed 	10.450051895587
scalar LocScenario.node[5].veinsmobility 	maxSpeed 	10.499994774163
scalar LocScenario.node[5].veinsmobility 	totalDistance 	2133.824422863
scalar LocScenario.node[5].veinsmobility 	totalCO2Emission 	351.94420793663
scalar LocScenario.node[0].appl 	generatedWSMs 	0
scalar LocScenario.node[0].appl 	receivedWSMs 	0
scalar LocScenario.node[0].appl 	generatedBSMs 	2281
scalar LocScenario.node[0].appl 	receivedBSMs 	8736
scalar LocScenario.node[0].appl 	generatedWSAs 	0
scalar LocScenario.node[0].appl 	receivedWSAs 	0
scalar LocScenario.node[0].appl 	rmseSUMGPS 	131305.28095182
scalar LocScenario.node[0].appl 	rmseSUMCP 	422567.75299695
scalar LocScenario.node[0].appl 	delaySum 	0.97773874949601
scalar LocScenario.node[0].nic.phy80211p 	busyTime 	0.0039830951337131
scalar LocScenario.node[0].nic.mac1609_4 	ReceivedUnicastPackets 	0
scalar LocScenario.node[0].nic.mac1609_4 	ReceivedBroadcasts 	8736
scalar LocScenario.node[0].nic.mac1609_4 	SentPackets 	2281
scalar LocScenario.node[0].nic.mac1609_4 	SNIRLostPackets 	0
scalar LocScenario.node[0].nic.mac1609_4 	RXTXLostPackets 	0
scalar LocScenario.node[0].nic.mac1609_4 	TotalLostPackets 	0
scalar LocScenario.node[0].nic.mac1609_4 	DroppedPacketsInMac 	0
scalar LocScenario.node[0].nic.mac1609_4 	TooLittleTime 	0
scalar LocScenario.node[0].nic.mac1609_4 	TimesIntoBackoff 	2281
scalar LocScenario.node[0].nic.mac1609_4 	SlotsBackoff 	3449
scalar LocScenario.node[0].nic.mac1609_4 	NumInternalContention 	0
scalar LocScenario.node[0].nic.mac1609_4 	totalBusyTime 	1.148049
scalar LocScenario.node[0].veinsmobility 	startTime 	0.1
scalar LocScenario.node[0].veinsmobility 	totalTime 	228
scalar LocScenario.node[0].veinsmobility 	stopTime 	228.2
scalar LocScenario.node[0].veinsmobility 	minSpeed 	10.450001398695
scalar LocScenario.node[0].veinsmobility 	maxSpeed 	10.499982572277
scalar LocScenario.node[0].veinsmobility 	totalDistance 	2394.6469977037
scalar LocScenario.node[0].veinsmobility 	totalCO2Emission 	394.28587460532
scalar LocScenario.node[7].appl 	generatedWSMs 	0
scalar LocScenario.node[7].appl 	receivedWSMs 	0
scalar LocScenario.node[7].appl 	generatedBSMs 	2040
scalar LocScenario.node[7].appl 	receivedBSMs 	12333
scalar LocScenario.node[7].appl 	generatedWSAs 	0
scalar LocScenario.node[7].appl 	receivedWSAs 	0
scalar LocScenario.node[7].appl 	rmseSUMGPS 	848372.41436305
scalar LocScenario.node[7].appl 	rmseSUMCP 	8661316.2160797
scalar LocScenario.node[7].appl 	delaySum 	1.3803541290591
scalar LocScenario.node[7].nic.phy80211p 	busyTime 	0.006287411764707
scalar LocScenario.node[7].nic.mac1609_4 	ReceivedUnicastPackets 	0
scalar LocScenario.node[7].nic.mac1609_4 	ReceivedBroadcasts 	12333
scalar LocScenario.node[7].nic.mac1609_4 	SentPackets 	2040
scalar LocScenario.node[7].nic.mac1609_4 	SNIRLostPackets 	0
scalar LocScenario.node[7].nic.mac1609_4 	RXTXLostPackets 	0
scalar LocScenario.node[7].nic.mac1609_4 	TotalLostPackets 	0
scalar LocScenario.node[7].nic.mac1609_4 	DroppedPacketsInMac 	0
scalar LocScenario.node[7].nic.mac1609_4 	TooLittleTime 	0
scalar LocScenario.node[7].nic.mac1609_4 	TimesIntoBackoff 	2040
scalar LocScenario.node[7].nic.mac1609_4 	SlotsBackoff 	3005
scalar LocScenario.node[7].nic.mac1609_4 	NumInternalContention 	0
scalar LocScenario.node[7].nic.mac1609_4 	totalBusyTime 	1.496832
scalar LocScenario.node[7].veinsmobility 	startTime 	30.1
scalar LocScenario.node[7].veinsmobility 	totalTime 	203.9
scalar LocScenario.node[7].veinsmobility 	stopTime 	234.1
scalar LocScenario.node[7].veinsmobility 	minSpeed 	10.450007996929
scalar LocScenario.node[7].veinsmobility 	maxSpeed 	10.499997749587
scalar LocScenario.node[7].veinsmobility 	totalDistance 	2133.7951901077
scalar LocScenario.node[7].veinsmobility 	totalCO2Emission 	351.74208077346
scalar LocScenario.node[2].appl 	generatedWSMs 	0
scalar LocScenario.node[2].appl 	receivedWSMs 	0
scalar LocScenario.node[2].appl 	generatedBSMs 	2281
scalar LocScenario.node[2].appl 	receivedBSMs 	11135
scalar LocScenario.node[2].appl 	generatedWSAs 	0
scalar LocScenario.node[2].appl 	receivedWSAs 	0
scalar LocScenario.node[2].appl 	rmseSUMGPS 	22619.44213139
scalar LocScenario.node[2].appl 	rmseSUMCP 	329383.76676978
scalar LocScenario.node[2].appl 	delaySum 	1.248945947032
scalar LocScenario.node[2].nic.phy80211p 	busyTime 	0.005076896098203
scalar LocScenario.node[2].nic.mac1609_4 	ReceivedUnicastPackets 	0
scalar LocScenario.node[2].nic.mac1609_4 	ReceivedBroadcasts 	11135
scalar LocScenario.node[2].nic.mac1609_4 	SentPackets 	2281
scalar LocScenario.node[2].nic.mac1609_4 	SNIRLostPackets 	0
scalar LocScenario.node[2].nic.mac1609_4 	RXTXLostPackets 	0
scalar LocScenario.node[2].nic.mac1609_4 	TotalLostPackets 	0
scalar LocScenario.node[2].nic.mac1609_4 	DroppedPacketsInMac 	0
scalar LocScenario.node[2].nic.mac1609_4 	TooLittleTime 	0
scalar LocScenario.node[2].nic.mac1609_4 	TimesIntoBackoff 	2326
scalar LocScenario.node[2].nic.mac1609_4 	SlotsBackoff 	3414
scalar LocScenario.node[2].nic.mac1609_4 	NumInternalContention 	0
scalar LocScenario.node[2].nic.mac1609_4 	totalBusyTime 	1.397545
scalar LocScenario.node[2].veinsmobility 	startTime 	10.1
scalar LocScenario.node[2].veinsmobility 	totalTime 	228
scalar LocScenario.node[2].veinsmobility 	stopTime 	238.2
scalar LocScenario.node[2].veinsmobility 	minSpeed 	10.450045776088
scalar LocScenario.node[2].veinsmobility 	maxSpeed 	10.499986580352
scalar LocScenario.node[2].veinsmobility 	totalDistance 	2394.8331554303
scalar LocScenario.node[2].veinsmobility 	totalCO2Emission 	393.18874493993
scalar LocScenario.node[9].appl 	generatedWSMs 	0
scalar LocScenario.node[9].appl 	receivedWSMs 	0
scalar LocScenario.node[9].appl 	generatedBSMs 	2040
scalar LocScenario.node[9].appl 	receivedBSMs 	12541
scalar LocScenario.node[9].appl 	generatedWSAs 	0
scalar LocScenario.node[9].appl 	receivedWSAs 	0
scalar LocScenario.node[9].appl 	rmseSUMGPS 	701141.32269177
scalar LocScenario.node[9].appl 	rmseSUMCP 	2634076.79313
scalar LocScenario.node[9].appl 	delaySum 	1.4044359614393
scalar LocScenario.node[9].nic.phy80211p 	busyTime 	0.0063934509803934
scalar LocScenario.node[9].nic.mac1609_4 	ReceivedUnicastPackets 	0
scalar LocScenario.node[9].nic.mac1609_4 	ReceivedBroadcasts 	12541
scalar LocScenario.node[9].nic.mac1609_4 	SentPackets 	2040
scalar LocScenario.node[9].nic.mac1609_4 	SNIRLostPackets 	0
scalar LocScenario.node[9].nic.mac1609_4 	RXTXLostPackets 	0
scalar LocScenario.node[9].nic.mac1609_4 	TotalLostPackets 	0
scalar LocScenario.node[9].nic.mac1609_4 	DroppedPacketsInMac 	0
scalar LocScenario.node[9].nic.mac1609_4 	TooLittleTime 	0
scalar LocScenario.node[9].nic.mac1609_4 	TimesIntoBackoff 	2040
scalar LocScenario.node[9].nic.mac1609_4 	SlotsBackoff 	3083
scalar LocScenario.node[9].nic.mac1609_4 	NumInternalContention 	0
scalar LocScenario.node[9].nic.mac1609_4 	totalBusyTime 	1.518464
scalar LocScenario.node[9].veinsmobility 	startTime 	40.1
scalar LocScenario.node[9].veinsmobility 	totalTime 	203.9
scalar LocScenario.node[9].veinsmobility 	stopTime 	244.1
scalar LocScenario.node[9].veinsmobility 	minSpeed 	10.45000766007
scalar LocScenario.node[9].veinsmobility 	maxSpeed 	10.499967302103
scalar LocScenario.node[9].veinsmobility 	totalDistance 	2133.8980700083
scalar LocScenario.node[9].veinsmobility 	totalCO2Emission 	351.4389839477
scalar LocScenario.node[4].appl 	generatedWSMs 	0
scalar LocScenario.node[4].appl 	receivedWSMs 	0
scalar LocScenario.node[4].appl 	generatedBSMs 	2281
scalar LocScenario.node[4].appl 	receivedBSMs 	13295
scalar LocScenario.node[4].appl 	generatedWSAs 	0
scalar LocScenario.node[4].appl 	receivedWSAs 	0
scalar LocScenario.node[4].appl 	rmseSUMGPS 	130573.5071796
scalar LocScenario.node[4].appl 	rmseSUMCP 	889031.58922271
scalar LocScenario.node[4].appl 	delaySum 	1.4984076276446
scalar LocScenario.node[4].nic.phy80211p 	busyTime 	0.0060945550197297
scalar LocScenario.node[4].nic.mac1609_4 	ReceivedUnicastPackets 	0
scalar LocScenario.node[4].nic.mac1609_4 	ReceivedBroadcasts 	13295
scalar LocScenario.node[4].nic.mac1609_4 	SentPackets 	2281
scalar LocScenario.node[4].nic.mac1609_4 	SNIRLostPackets 	72
scalar LocScenario.node[4].nic.mac1609_4 	RXTXLostPackets 	0
scalar LocScenario.node[4].nic.mac1609_4 	TotalLostPackets 	72
scalar LocScenario.node[4].nic.mac1609_4 	DroppedPacketsInMac 	0
scalar LocScenario.node[4].nic.mac1609_4 	TooLittleTime 	0
scalar LocScenario.node[4].nic.mac1609_4 	TimesIntoBackoff 	2281
scalar LocScenario.node[4].nic.mac1609_4 	SlotsBackoff 	3445
scalar LocScenario.node[4].nic.mac1609_4 	NumInternalContention 	0
scalar LocScenario.node[4].nic.mac1609_4 	totalBusyTime 	1.625929
scalar LocScenario.node[4].veinsmobility 	startTime 	20.1
scalar LocScenario.node[4].veinsmobility 	totalTime 	228
scalar LocScenario.node[4].veinsmobility 	stopTime 	248.2
scalar LocScenario.node[4].veinsmobility 	minSpeed 	10.450044893962
scalar LocScenario.node[4].veinsmobility 	maxSpeed 	10.499982712232
scalar LocScenario.node[4].veinsmobility 	totalDistance 	2392.5106461381
scalar LocScenario.node[4].veinsmobility 	totalCO2Emission 	393.51561333436
scalar LocScenario.node[11].appl 	generatedWSMs 	0
scalar LocScenario.node[11].appl 	receivedWSMs 	0
scalar LocScenario.node[11].appl 	generatedBSMs 	2040
scalar LocScenario.node[11].appl 	receivedBSMs 	12764
scalar LocScenario.node[11].appl 	generatedWSAs 	0
scalar LocScenario.node[11].appl 	receivedWSAs 	0
scalar LocScenario.node[11].appl 	rmseSUMGPS 	714279.10279101
scalar LocScenario.node[11].appl 	rmseSUMCP 	1459868.523559
scalar LocScenario.node[11].appl 	delaySum 	1.4290444911316
scalar LocScenario.node[11].nic.phy80211p 	busyTime 	0.0065071372549033
scalar LocScenario.node[11].nic.mac1609_4 	ReceivedUnicastPackets 	0
scalar LocScenario.node[11].nic.mac1609_4 	ReceivedBroadcasts 	12764
scalar LocScenario.node[11].nic.mac1609_4 	SentPackets 	2040
scalar LocScenario.node[11].nic.mac1609_4 	SNIRLostPackets 	0
scalar LocScenario.node[11].nic.mac1609_4 	RXTXLostPackets 	0
scalar LocScenario.node[11].nic.mac1609_4 	TotalLostPackets 	0
scalar LocScenario.node[11].nic.mac1609_4 	DroppedPacketsInMac 	0
scalar LocScenario.node[11].nic.mac1609_4 	TooLittleTime 	0
scalar LocScenario.node[11].nic.mac1609_4 	TimesIntoBackoff 	2040
scalar LocScenario.node[11].nic.mac1609_4 	SlotsBackoff 	3120
scalar LocScenario.node[11].nic.mac1609_4 	NumInternalContention 	0
scalar LocScenario.node[11].nic.mac1609_4 	totalBusyTime 	1.541656
scalar LocScenario.node[11].veinsmobility 	startTime 	50.1
scalar LocScenario.node[11].veinsmobility 	totalTime 	203.9
scalar LocScenario.node[11].veinsmobility 	stopTime 	254.1
scalar LocScenario.node[11].veinsmobility 	minSpeed 	10.450010434946
scalar LocScenario.node[11].veinsmobility 	maxSpeed 	10.499991956598
scalar LocScenario.node[11].veinsmobility 	totalDistance 	2133.8639802762
scalar LocScenario.node[11].veinsmobility 	totalCO2Emission 	351.63379943121
scalar LocScenario.node[6].appl 	generatedWSMs 	0
scalar LocScenario.node[6].appl 	receivedWSMs 	0
scalar LocScenario.node[6].appl 	generatedBSMs 	2281
scalar LocScenario.node[6].appl 	receivedBSMs 	13549
scalar LocScenario.node[6].appl 	generatedWSAs 	0
scalar LocScenario.node[6].appl 	receivedWSAs 	0
scalar LocScenario.node[6].appl 	rmseSUMGPS 	23087.168152904
scalar LocScenario.node[6].appl 	rmseSUMCP 	1051276.2503013
scalar LocScenario.node[6].appl 	delaySum 	1.5285910539074
scalar LocScenario.node[6].nic.phy80211p 	busyTime 	0.0061939500219218
scalar LocScenario.node[6].nic.mac1609_4 	ReceivedUnicastPackets 	0
scalar LocScenario.node[6].nic.mac1609_4 	ReceivedBroadcasts 	13549
scalar LocScenario.node[6].nic.mac1609_4 	SentPackets 	2281
scalar LocScenario.node[6].nic.mac1609_4 	SNIRLostPackets 	36
scalar LocScenario.node[6].nic.mac1609_4 	RXTXLostPackets 	0
scalar LocScenario.node[6].nic.mac1609_4 	TotalLostPackets 	36
scalar LocScenario.node[6].nic.mac1609_4 	DroppedPacketsInMac 	0
scalar LocScenario.node[6].nic.mac1609_4 	TooLittleTime 	0
scalar LocScenario.node[6].nic.mac1609_4 	TimesIntoBackoff 	2281
scalar LocScenario.node[6].nic.mac1609_4 	SlotsBackoff 	3446
scalar LocScenario.node[6].nic.mac1609_4 	NumInternalContention 	0
scalar LocScenario.node[6].nic.mac1609_4 	totalBusyTime 	1.648601
scalar LocScenario.node[6].veinsmobility 	startTime 	30.1
scalar LocScenario.node[6].veinsmobility 	totalTime 	228
scalar LocScenario.node[6].veinsmobility 	stopTime 	258.2
scalar LocScenario.node[6].veinsmobility 	minSpeed 	10.450000677712
scalar LocScenario.node[6].veinsmobility 	maxSpeed 	10.499986586033
scalar LocScenario.node[6].veinsmobility 	totalDistance 	2392.2601040297
scalar LocScenario.node[6].veinsmobility 	totalCO2Emission 	393.87311580137
scalar LocScenario.node[13].appl 	generatedWSMs 	0
scalar LocScenario.node[13].appl 	receivedWSMs 	0
scalar LocScenario.node[13].appl 	generatedBSMs 	2040
scalar LocScenario.node[13].appl 	receivedBSMs 	12967
scalar LocScenario.node[13].appl 	generatedWSAs 	0
scalar LocScenario.node[13].appl 	receivedWSAs 	0
scalar LocScenario.node[13].appl 	rmseSUMGPS 	704736.90187712
scalar LocScenario.node[13].appl 	rmseSUMCP 	1190796.8993852
scalar LocScenario.node[13].appl 	delaySum 	1.4510278710118
scalar LocScenario.node[13].nic.phy80211p 	busyTime 	0.0066106274509818
scalar LocScenario.node[13].nic.mac1609_4 	ReceivedUnicastPackets 	0
scalar LocScenario.node[13].nic.mac1609_4 	ReceivedBroadcasts 	12967
scalar LocScenario.node[13].nic.mac1609_4 	SentPackets 	2040
scalar LocScenario.node[13].nic.mac1609_4 	SNIRLostPackets 	0
scalar LocScenario.node[13].nic.mac1609_4 	RXTXLostPackets 	0
scalar LocScenario.node[13].nic.mac1609_4 	TotalLostPackets 	0
scalar LocScenario.node[13].nic.mac1609_4 	DroppedPacketsInMac 	0
scalar LocScenario.node[13].nic.mac1609_4 	TooLittleTime 	0
scalar LocScenario.node[13].nic.mac1609_4 	TimesIntoBackoff 	2040
scalar LocScenario.node[13].nic.mac1609_4 	SlotsBackoff 	3025
scalar LocScenario.node[13].nic.mac1609_4 	NumInternalContention 	0
scalar LocScenario.node[13].nic.mac1609_4 	totalBusyTime 	1.562768
scalar LocScenario.node[13].veinsmobility 	startTime 	60.1
scalar LocScenario.node[13].veinsmobility 	totalTime 	203.9
scalar LocScenario.node[13].veinsmobility 	stopTime 	264.1
scalar LocScenario.node[13].veinsmobility 	minSpeed 	10.450001795532
scalar LocScenario.node[13].veinsmobility 	maxSpeed 	10.499975764425
scalar LocScenario.node[13].veinsmobility 	totalDistance 	2138.7622656414
scalar LocScenario.node[13].veinsmobility 	totalCO2Emission 	351.96425113734
scalar LocScenario.node[8].appl 	generatedWSMs 	0
scalar LocScenario.node[8].appl 	receivedWSMs 	0
scalar LocScenario.node[8].appl 	generatedBSMs 	2281
scalar LocScenario.node[8].appl 	receivedBSMs 	13802
scalar LocScenario.node[8].appl 	generatedWSAs 	0
scalar LocScenario.node[8].appl 	receivedWSAs 	0
scalar LocScenario.node[8].appl 	rmseSUMGPS 	714271.47347189
scalar LocScenario.node[8].appl 	rmseSUMCP 	830285.16015414
scalar LocScenario.node[8].appl 	delaySum 	2.5196862748883e+180
scalar LocScenario.node[8].nic.phy80211p 	busyTime 	0.006294712845245
scalar LocScenario.node[8].nic.mac1609_4 	ReceivedUnicastPackets 	0
scalar LocScenario.node[8].nic.mac1609_4 	ReceivedBroadcasts 	13802
scalar LocScenario.node[8].nic.mac1609_4 	SentPackets 	2281
scalar LocScenario.node[8].nic.mac1609_4 	SNIRLostPackets 	4
scalar LocScenario.node[8].nic.mac1609_4 	RXTXLostPackets 	0
scalar LocScenario.node[8].nic.mac1609_4 	TotalLostPackets 	4
scalar LocScenario.node[8].nic.mac1609_4 	DroppedPacketsInMac 	0
scalar LocScenario.node[8].nic.mac1609_4 	TooLittleTime 	0
scalar LocScenario.node[8].nic.mac1609_4 	TimesIntoBackoff 	2281
scalar LocScenario.node[8].nic.mac1609_4 	SlotsBackoff 	3332
scalar LocScenario.node[8].nic.mac1609_4 	NumInternalContention 	0
scalar LocScenario.node[8].nic.mac1609_4 	totalBusyTime 	1.675329
scalar LocScenario.node[8].veinsmobility 	startTime 	40.1
scalar LocScenario.node[8].veinsmobility 	totalTime 	228
scalar LocScenario.node[8].veinsmobility 	stopTime 	268.2
scalar LocScenario.node[8].veinsmobility 	minSpeed 	10.450069937063
scalar LocScenario.node[8].veinsmobility 	maxSpeed 	10.49999699191
scalar LocScenario.node[8].veinsmobility 	totalDistance 	2388.6980868724
scalar LocScenario.node[8].veinsmobility 	totalCO2Emission 	393.60431989611
scalar LocScenario.node[15].appl 	generatedWSMs 	0
scalar LocScenario.node[15].appl 	receivedWSMs 	0
scalar LocScenario.node[15].appl 	generatedBSMs 	2040
scalar LocScenario.node[15].appl 	receivedBSMs 	13195
scalar LocScenario.node[15].appl 	generatedWSAs 	0
scalar LocScenario.node[15].appl 	receivedWSAs 	0
scalar LocScenario.node[15].appl 	rmseSUMGPS 	1191542.2581817
scalar LocScenario.node[15].appl 	rmseSUMCP 	869316.93534646
scalar LocScenario.node[15].appl 	delaySum 	1.4770539852217
scalar LocScenario.node[15].nic.phy80211p 	busyTime 	0.0067268627450996
scalar LocScenario.node[15].nic.mac1609_4 	ReceivedUnicastPackets 	0
scalar LocScenario.node[15].nic.mac1609_4 	ReceivedBroadcasts 	13195
scalar LocScenario.node[15].nic.mac1609_4 	SentPackets 	2040
scalar LocScenario.node[15].nic.mac1609_4 	SNIRLostPackets 	0
scalar LocScenario.node[15].nic.mac1609_4 	RXTXLostPackets 	0
scalar LocScenario.node[15].nic.mac1609_4 	TotalLostPackets 	0
scalar LocScenario.node[15].nic.mac1609_4 	DroppedPacketsInMac 	0
scalar LocScenario.node[15].nic.mac1609_4 	TooLittleTime 	0
scalar LocScenario.node[15].nic.mac1609_4 	TimesIntoBackoff 	2040
scalar LocScenario.node[15].nic.mac1609_4 	SlotsBackoff 	3184
scalar LocScenario.node[15].nic.mac1609_4 	NumInternalContention 	0
scalar LocScenario.node[15].nic.mac1609_4 	totalBusyTime 	1.58648
scalar LocScenario.node[15].veinsmobility 	startTime 	70.1
scalar LocScenario.node[15].veinsmobility 	totalTime 	203.9
scalar LocScenario.node[15].veinsmobility 	stopTime 	274.1
scalar LocScenario.node[15].veinsmobility 	minSpeed 	10.450030517764
scalar LocScenario.node[15].veinsmobility 	maxSpeed 	10.499950494454
scalar LocScenario.node[15].veinsmobility 	totalDistance 	2138.8001328483
scalar LocScenario.node[15].veinsmobility 	totalCO2Emission 	351.52736191501
scalar LocScenario.node[10].appl 	generatedWSMs 	0
scalar LocScenario.node[10].appl 	receivedWSMs 	0
scalar LocScenario.node[10].appl 	generatedBSMs 	2281
scalar LocScenario.node[10].appl 	receivedBSMs 	14031
scalar LocScenario.node[10].appl 	generatedWSAs 	0
scalar LocScenario.node[10].appl 	receivedWSAs 	0
scalar LocScenario.node[10].appl 	rmseSUMGPS 	45323.625372571
scalar LocScenario.node[10].appl 	rmseSUMCP 	863465.71741341
scalar LocScenario.node[10].appl 	delaySum 	5.8065514325588e+14
scalar LocScenario.node[10].nic.phy80211p 	busyTime 	0.0063972994300763
scalar LocScenario.node[10].nic.mac1609_4 	ReceivedUnicastPackets 	0
scalar LocScenario.node[10].nic.mac1609_4 	ReceivedBroadcasts 	14031
scalar LocScenario.node[10].nic.mac1609_4 	SentPackets 	2281
scalar LocScenario.node[10].nic.mac1609_4 	SNIRLostPackets 	0
scalar LocScenario.node[10].nic.mac1609_4 	RXTXLostPackets 	0
scalar LocScenario.node[10].nic.mac1609_4 	TotalLostPackets 	0
scalar LocScenario.node[10].nic.mac1609_4 	DroppedPacketsInMac 	0
scalar LocScenario.node[10].nic.mac1609_4 	TooLittleTime 	0
scalar LocScenario.node[10].nic.mac1609_4 	TimesIntoBackoff 	2281
scalar LocScenario.node[10].nic.mac1609_4 	SlotsBackoff 	3410
scalar LocScenario.node[10].nic.mac1609_4 	NumInternalContention 	0
scalar LocScenario.node[10].nic.mac1609_4 	totalBusyTime 	1.698729
scalar LocScenario.node[10].veinsmobility 	startTime 	50.1
scalar LocScenario.node[10].veinsmobility 	totalTime 	228
scalar LocScenario.node[10].veinsmobility 	stopTime 	278.2
scalar LocScenario.node[10].veinsmobility 	minSpeed 	10.450004224281
scalar LocScenario.node[10].veinsmobility 	maxSpeed 	10.499991664325
scalar LocScenario.node[10].veinsmobility 	totalDistance 	2392.2269982732
scalar LocScenario.node[10].veinsmobility 	totalCO2Emission 	393.10607739194
scalar LocScenario.node[17].appl 	generatedWSMs 	0
scalar LocScenario.node[17].appl 	receivedWSMs 	0
scalar LocScenario.node[17].appl 	generatedBSMs 	2040
scalar LocScenario.node[17].appl 	receivedBSMs 	13414
scalar LocScenario.node[17].appl 	generatedWSAs 	0
scalar LocScenario.node[17].appl 	receivedWSAs 	0
scalar LocScenario.node[17].appl 	rmseSUMGPS 	677558.94518798
scalar LocScenario.node[17].appl 	rmseSUMCP 	739722.06455429
scalar LocScenario.node[17].appl 	delaySum 	1.5007405294671
scalar LocScenario.node[17].nic.phy80211p 	busyTime 	0.0068385098039232
scalar LocScenario.node[17].nic.mac1609_4 	ReceivedUnicastPackets 	0
scalar LocScenario.node[17].nic.mac1609_4 	ReceivedBroadcasts 	13414
scalar LocScenario.node[17].nic.mac1609_4 	SentPackets 	2040
scalar LocScenario.node[17].nic.mac1609_4 	SNIRLostPackets 	0
scalar LocScenario.node[17].nic.mac1609_4 	RXTXLostPackets 	0
scalar LocScenario.node[17].nic.mac1609_4 	TotalLostPackets 	0
scalar LocScenario.node[17].nic.mac1609_4 	DroppedPacketsInMac 	0
scalar LocScenario.node[17].nic.mac1609_4 	TooLittleTime 	0
scalar LocScenario.node[17].nic.mac1609_4 	TimesIntoBackoff 	2040
scalar LocScenario.node[17].nic.mac1609_4 	SlotsBackoff 	2996
scalar LocScenario.node[17].nic.mac1609_4 	NumInternalContention 	0
scalar LocScenario.node[17].nic.mac1609_4 	totalBusyTime 	1.609256
scalar LocScenario.node[17].veinsmobility 	startTime 	80.1
scalar LocScenario.node[17].veinsmobility 	totalTime 	203.9
scalar LocScenario.node[17].veinsmobility 	stopTime 	284.1
scalar LocScenario.node[17].veinsmobility 	minSpeed 	10.450013109914
scalar LocScenario.node[17].veinsmobility 	maxSpeed 	10.499999723607
scalar LocScenario.node[17].veinsmobility 	totalDistance 	2138.8786826095
scalar LocScenario.node[17].veinsmobility 	totalCO2Emission 	352.54454120518
scalar LocScenario.node[12].appl 	generatedWSMs 	0
scalar LocScenario.node[12].appl 	receivedWSMs 	0
scalar LocScenario.node[12].appl 	generatedBSMs 	2281
scalar LocScenario.node[12].appl 	receivedBSMs 	14252
scalar LocScenario.node[12].appl 	generatedWSAs 	0
scalar LocScenario.node[12].appl 	receivedWSAs 	0
scalar LocScenario.node[12].appl 	rmseSUMGPS 	758797.11583099
scalar LocScenario.node[12].appl 	rmseSUMCP 	800813.59177486
scalar LocScenario.node[12].appl 	delaySum 	1.6008317784554
scalar LocScenario.node[12].nic.phy80211p 	busyTime 	0.0064980622533995
scalar LocScenario.node[12].nic.mac1609_4 	ReceivedUnicastPackets 	0
scalar LocScenario.node[12].nic.mac1609_4 	ReceivedBroadcasts 	14252
scalar LocScenario.node[12].nic.mac1609_4 	SentPackets 	2281
scalar LocScenario.node[12].nic.mac1609_4 	SNIRLostPackets 	0
scalar LocScenario.node[12].nic.mac1609_4 	RXTXLostPackets 	0
scalar LocScenario.node[12].nic.mac1609_4 	TotalLostPackets 	0
scalar LocScenario.node[12].nic.mac1609_4 	DroppedPacketsInMac 	0
scalar LocScenario.node[12].nic.mac1609_4 	TooLittleTime 	0
scalar LocScenario.node[12].nic.mac1609_4 	TimesIntoBackoff 	2281
scalar LocScenario.node[12].nic.mac1609_4 	SlotsBackoff 	3425
scalar LocScenario.node[12].nic.mac1609_4 	NumInternalContention 	0
scalar LocScenario.node[12].nic.mac1609_4 	totalBusyTime 	1.721713
scalar LocScenario.node[12].veinsmobility 	startTime 	60.1
scalar LocScenario.node[12].veinsmobility 	totalTime 	228
scalar LocScenario.node[12].veinsmobility 	stopTime 	288.2
scalar LocScenario.node[12].veinsmobility 	minSpeed 	10.450010727497
scalar LocScenario.node[12].veinsmobility 	maxSpeed 	10.499982173927
scalar LocScenario.node[12].veinsmobility 	totalDistance 	2388.7007451695
scalar LocScenario.node[12].veinsmobility 	totalCO2Emission 	393.25165161965
scalar LocScenario.node[19].appl 	generatedWSMs 	0
scalar LocScenario.node[19].appl 	receivedWSMs 	0
scalar LocScenario.node[19].appl 	generatedBSMs 	2040
scalar LocScenario.node[19].appl 	receivedBSMs 	13656
scalar LocScenario.node[19].appl 	generatedWSAs 	0
scalar LocScenario.node[19].appl 	receivedWSAs 	0
scalar LocScenario.node[19].appl 	rmseSUMGPS 	1628534.6124398
scalar LocScenario.node[19].appl 	rmseSUMCP 	656684.78466903
scalar LocScenario.node[19].appl 	delaySum 	1.5269511751457
scalar LocScenario.node[19].nic.phy80211p 	busyTime 	0.006961882352943
scalar LocScenario.node[19].nic.mac1609_4 	ReceivedUnicastPackets 	0
scalar LocScenario.node[19].nic.mac1609_4 	ReceivedBroadcasts 	13656
scalar LocScenario.node[19].nic.mac1609_4 	SentPackets 	2040
scalar LocScenario.node[19].nic.mac1609_4 	SNIRLostPackets 	0
scalar LocScenario.node[19].nic.mac1609_4 	RXTXLostPackets 	0
scalar LocScenario.node[19].nic.mac1609_4 	TotalLostPackets 	0
scalar LocScenario.node[19].nic.mac1609_4 	DroppedPacketsInMac 	0
scalar LocScenario.node[19].nic.mac1609_4 	TooLittleTime 	0
scalar LocScenario.node[19].nic.mac1609_4 	TimesIntoBackoff 	2040
scalar LocScenario.node[19].nic.mac1609_4 	SlotsBackoff 	3002
scalar LocScenario.node[19].nic.mac1609_4 	NumInternalContention 	0
scalar LocScenario.node[19].nic.mac1609_4 	totalBusyTime 	1.634424
scalar LocScenario.node[19].veinsmobility 	startTime 	90.1
scalar LocScenario.node[19].veinsmobility 	totalTime 	203.9
scalar LocScenario.node[19].veinsmobility 	stopTime 	294.1
scalar LocScenario.node[19].veinsmobility 	minSpeed 	10.450001177448
scalar LocScenario.node[19].veinsmobility 	maxSpeed 	10.499994682707
scalar LocScenario.node[19].veinsmobility 	totalDistance 	2133.8799222858
scalar LocScenario.node[19].veinsmobility 	totalCO2Emission 	352.16567768684
scalar LocScenario.node[14].appl 	generatedWSMs 	0
scalar LocScenario.node[14].appl 	receivedWSMs 	0
scalar LocScenario.node[14].appl 	generatedBSMs 	2281
scalar LocScenario.node[14].appl 	receivedBSMs 	14463
scalar LocScenario.node[14].appl 	generatedWSAs 	0
scalar LocScenario.node[14].appl 	receivedWSAs 	0
scalar LocScenario.node[14].appl 	rmseSUMGPS 	56956.343559753
scalar LocScenario.node[14].appl 	rmseSUMCP 	879187.40306813
scalar LocScenario.node[14].appl 	delaySum 	3.4084129367459e+184
scalar LocScenario.node[14].nic.phy80211p 	busyTime 	0.0065942656729524
scalar LocScenario.node[14].nic.mac1609_4 	ReceivedUnicastPackets 	0
scalar LocScenario.node[14].nic.mac1609_4 	ReceivedBroadcasts 	14463
scalar LocScenario.node[14].nic.mac1609_4 	SentPackets 	2281
scalar LocScenario.node[14].nic.mac1609_4 	SNIRLostPackets 	0
scalar LocScenario.node[14].nic.mac1609_4 	RXTXLostPackets 	0
scalar LocScenario.node[14].nic.mac1609_4 	TotalLostPackets 	0
scalar LocScenario.node[14].nic.mac1609_4 	DroppedPacketsInMac 	0
scalar LocScenario.node[14].nic.mac1609_4 	TooLittleTime 	0
scalar LocScenario.node[14].nic.mac1609_4 	TimesIntoBackoff 	2281
scalar LocScenario.node[14].nic.mac1609_4 	SlotsBackoff 	3405
scalar LocScenario.node[14].nic.mac1609_4 	NumInternalContention 	0
scalar LocScenario.node[14].nic.mac1609_4 	totalBusyTime 	1.743657
scalar LocScenario.node[14].veinsmobility 	startTime 	70.1
scalar LocScenario.node[14].veinsmobility 	totalTime 	228
scalar LocScenario.node[14].veinsmobility 	stopTime 	298.2
scalar LocScenario.node[14].veinsmobility 	minSpeed 	10.450030124607
scalar LocScenario.node[14].veinsmobility 	maxSpeed 	10.499966963835
scalar LocScenario.node[14].veinsmobility 	totalDistance 	2394.7376192674
scalar LocScenario.node[14].veinsmobility 	totalCO2Emission 	393.17156699254
scalar LocScenario.node[21].appl 	generatedWSMs 	0
scalar LocScenario.node[21].appl 	receivedWSMs 	0
scalar LocScenario.node[21].appl 	generatedBSMs 	2040
scalar LocScenario.node[21].appl 	receivedBSMs 	13874
scalar LocScenario.node[21].appl 	generatedWSAs 	0
scalar LocScenario.node[21].appl 	receivedWSAs 	0
scalar LocScenario.node[21].appl 	rmseSUMGPS 	879515.67844361
scalar LocScenario.node[21].appl 	rmseSUMCP 	638499.90196469
scalar LocScenario.node[21].appl 	delaySum 	1.5518612744838
scalar LocScenario.node[21].nic.phy80211p 	busyTime 	0.007073019607845
scalar LocScenario.node[21].nic.mac1609_4 	ReceivedUnicastPackets 	0
scalar LocScenario.node[21].nic.mac1609_4 	ReceivedBroadcasts 	13874
scalar LocScenario.node[21].nic.mac1609_4 	SentPackets 	2040
scalar LocScenario.node[21].nic.mac1609_4 	SNIRLostPackets 	0
scalar LocScenario.node[21].nic.mac1609_4 	RXTXLostPackets 	0
scalar LocScenario.node[21].nic.mac1609_4 	TotalLostPackets 	0
scalar LocScenario.node[21].nic.mac1609_4 	DroppedPacketsInMac 	0
scalar LocScenario.node[21].nic.mac1609_4 	TooLittleTime 	0
scalar LocScenario.node[21].nic.mac1609_4 	TimesIntoBackoff 	2040
scalar LocScenario.node[21].nic.mac1609_4 	SlotsBackoff 	3021
scalar LocScenario.node[21].nic.mac1609_4 	NumInternalContention 	0
scalar LocScenario.node[21].nic.mac1609_4 	totalBusyTime 	1.657096
scalar LocScenario.node[21].veinsmobility 	startTime 	100.1
scalar LocScenario.node[21].veinsmobility 	totalTime 	203.9
scalar LocScenario.node[21].veinsmobility 	stopTime 	304.1
scalar LocScenario.node[21].veinsmobility 	minSpeed 	10.450019024708
scalar LocScenario.node[21].veinsmobility 	maxSpeed 	10.499999396817
scalar LocScenario.node[21].veinsmobility 	totalDistance 	2133.6762494451
scalar LocScenario.node[21].veinsmobility 	totalCO2Emission 	351.56729984342
scalar LocScenario.node[16].appl 	generatedWSMs 	0
scalar LocScenario.node[16].appl 	receivedWSMs 	0
scalar LocScenario.node[16].appl 	generatedBSMs 	2281
scalar LocScenario.node[16].appl 	receivedBSMs 	14673
scalar LocScenario.node[16].appl 	generatedWSAs 	0
scalar LocScenario.node[16].appl 	receivedWSAs 	0
scalar LocScenario.node[16].appl 	rmseSUMGPS 	927802.87296945
scalar LocScenario.node[16].appl 	rmseSUMCP 	772043.62072622
scalar LocScenario.node[16].appl 	delaySum 	1.6430123128252
scalar LocScenario.node[16].nic.phy80211p 	busyTime 	0.0066900131521283
scalar LocScenario.node[16].nic.mac1609_4 	ReceivedUnicastPackets 	0
scalar LocScenario.node[16].nic.mac1609_4 	ReceivedBroadcasts 	14673
scalar LocScenario.node[16].nic.mac1609_4 	SentPackets 	2281
scalar LocScenario.node[16].nic.mac1609_4 	SNIRLostPackets 	0
scalar LocScenario.node[16].nic.mac1609_4 	RXTXLostPackets 	0
scalar LocScenario.node[16].nic.mac1609_4 	TotalLostPackets 	0
scalar LocScenario.node[16].nic.mac1609_4 	DroppedPacketsInMac 	0
scalar LocScenario.node[16].nic.mac1609_4 	TooLittleTime 	0
scalar LocScenario.node[16].nic.mac1609_4 	TimesIntoBackoff 	2281
scalar LocScenario.node[16].nic.mac1609_4 	SlotsBackoff 	3443
scalar LocScenario.node[16].nic.mac1609_4 	NumInternalContention 	0
scalar LocScenario.node[16].nic.mac1609_4 	totalBusyTime 	1.765497
scalar LocScenario.node[16].veinsmobility 	startTime 	80.1
scalar LocScenario.node[16].veinsmobility 	totalTime 	228
scalar LocScenario.node[16].veinsmobility 	stopTime 	308.2
scalar LocScenario.node[16].veinsmobility 	minSpeed 	10.450094692968
scalar LocScenario.node[16].veinsmobility 	maxSpeed 	10.49999420261
scalar LocScenario.node[16].veinsmobility 	totalDistance 	2388.818119671
scalar LocScenario.node[16].veinsmobility 	totalCO2Emission 	392.96553839032
scalar LocScenario.node[23].appl 	generatedWSMs 	0
scalar LocScenario.node[23].appl 	receivedWSMs 	0
scalar LocScenario.node[23].appl 	generatedBSMs 	2040
scalar LocScenario.node[23].appl 	receivedBSMs 	14110
scalar LocScenario.node[23].appl 	generatedWSAs 	0
scalar LocScenario.node[23].appl 	receivedWSAs 	0
scalar LocScenario.node[23].appl 	rmseSUMGPS 	951626.66930398
scalar LocScenario.node[23].appl 	rmseSUMCP 	646675.03738607
scalar LocScenario.node[23].appl 	delaySum 	1.5784988906817
scalar LocScenario.node[23].nic.phy80211p 	busyTime 	0.0071933333333354
scalar LocScenario.node[23].nic.mac1609_4 	ReceivedUnicastPackets 	0
scalar LocScenario.node[23].nic.mac1609_4 	ReceivedBroadcasts 	14110
scalar LocScenario.node[23].nic.mac1609_4 	SentPackets 	2040
scalar LocScenario.node[23].nic.mac1609_4 	SNIRLostPackets 	0
scalar LocScenario.node[23].nic.mac1609_4 	RXTXLostPackets 	0
scalar LocScenario.node[23].nic.mac1609_4 	TotalLostPackets 	0
scalar LocScenario.node[23].nic.mac1609_4 	DroppedPacketsInMac 	0
scalar LocScenario.node[23].nic.mac1609_4 	TooLittleTime 	0
scalar LocScenario.node[23].nic.mac1609_4 	TimesIntoBackoff 	2040
scalar LocScenario.node[23].nic.mac1609_4 	SlotsBackoff 	3101
scalar LocScenario.node[23].nic.mac1609_4 	NumInternalContention 	0
scalar LocScenario.node[23].nic.mac1609_4 	totalBusyTime 	1.68164
scalar LocScenario.node[23].veinsmobility 	startTime 	110.1
scalar LocScenario.node[23].veinsmobility 	totalTime 	203.9
scalar LocScenario.node[23].veinsmobility 	stopTime 	314.1
scalar LocScenario.node[23].veinsmobility 	minSpeed 	10.450031001528
scalar LocScenario.node[23].veinsmobility 	maxSpeed 	10.499938194884
scalar LocScenario.node[23].veinsmobility 	totalDistance 	2133.8745071474
scalar LocScenario.node[23].veinsmobility 	totalCO2Emission 	352.18290353205
scalar LocScenario.node[18].appl 	generatedWSMs 	0
scalar LocScenario.node[18].appl 	receivedWSMs 	0
scalar LocScenario.node[18].appl 	generatedBSMs 	2281
scalar LocScenario.node[18].appl 	receivedBSMs 	14883
scalar LocScenario.node[18].appl 	generatedWSAs 	0
scalar LocScenario.node[18].appl 	receivedWSAs 	0
scalar LocScenario.node[18].appl 	rmseSUMGPS 	41372.805700727
scalar LocScenario.node[18].appl 	rmseSUMCP 	842867.54341576
scalar LocScenario.node[18].appl 	delaySum 	1.6661796413462
scalar LocScenario.node[18].nic.phy80211p 	busyTime 	0.0067857606313042
scalar LocScenario.node[18].nic.mac1609_4 	ReceivedUnicastPackets 	0
scalar LocScenario.node[18].nic.mac1609_4 	ReceivedBroadcasts 	14883
scalar LocScenario.node[18].nic.mac1609_4 	SentPackets 	2281
scalar LocScenario.node[18].nic.mac1609_4 	SNIRLostPackets 	0
scalar LocScenario.node[18].nic.mac1609_4 	RXTXLostPackets 	0
scalar LocScenario.node[18].nic.mac1609_4 	TotalLostPackets 	0
scalar LocScenario.node[18].nic.mac1609_4 	DroppedPacketsInMac 	0
scalar LocScenario.node[18].nic.mac1609_4 	TooLittleTime 	0
scalar LocScenario.node[18].nic.mac1609_4 	TimesIntoBackoff 	2281
scalar LocScenario.node[18].nic.mac1609_4 	SlotsBackoff 	3426
scalar LocScenario.node[18].nic.mac1609_4 	NumInternalContention 	0
scalar LocScenario.node[18].nic.mac1609_4 	totalBusyTime 	1.787337
scalar LocScenario.node[18].veinsmobility 	startTime 	90.1
scalar LocScenario.node[18].veinsmobility 	totalTime 	228
scalar LocScenario.node[18].veinsmobility 	stopTime 	318.2
scalar LocScenario.node[18].veinsmobility 	minSpeed 	10.450006576325
scalar LocScenario.node[18].veinsmobility 	maxSpeed 	10.499943217798
scalar LocScenario.node[18].veinsmobility 	totalDistance 	2392.3025763487
scalar LocScenario.node[18].veinsmobility 	totalCO2Emission 	393.50809645662
scalar LocScenario.node[25].appl 	generatedWSMs 	0
scalar LocScenario.node[25].appl 	receivedWSMs 	0
scalar LocScenario.node[25].appl 	generatedBSMs 	2040
scalar LocScenario.node[25].appl 	receivedBSMs 	14316
scalar LocScenario.node[25].appl 	generatedWSAs 	0
scalar LocScenario.node[25].appl 	receivedWSAs 	0
scalar LocScenario.node[25].appl 	rmseSUMGPS 	609247.77696657
scalar LocScenario.node[25].appl 	rmseSUMCP 	635627.66219088
scalar LocScenario.node[25].appl 	delaySum 	1.6018122183947
scalar LocScenario.node[25].nic.phy80211p 	busyTime 	0.0072983529411786
scalar LocScenario.node[25].nic.mac1609_4 	ReceivedUnicastPackets 	0
scalar LocScenario.node[25].nic.mac1609_4 	ReceivedBroadcasts 	14316
scalar LocScenario.node[25].nic.mac1609_4 	SentPackets 	2040
scalar LocScenario.node[25].nic.mac1609_4 	SNIRLostPackets 	0
scalar LocScenario.node[25].nic.mac1609_4 	RXTXLostPackets 	0
scalar LocScenario.node[25].nic.mac1609_4 	TotalLostPackets 	0
scalar LocScenario.node[25].nic.mac1609_4 	DroppedPacketsInMac 	0
scalar LocScenario.node[25].nic.mac1609_4 	TooLittleTime 	0
scalar LocScenario.node[25].nic.mac1609_4 	TimesIntoBackoff 	2040
scalar LocScenario.node[25].nic.mac1609_4 	SlotsBackoff 	3019
scalar LocScenario.node[25].nic.mac1609_4 	NumInternalContention 	0
scalar LocScenario.node[25].nic.mac1609_4 	totalBusyTime 	1.703064
scalar LocScenario.node[25].veinsmobility 	startTime 	120.1
scalar LocScenario.node[25].veinsmobility 	totalTime 	203.9
scalar LocScenario.node[25].veinsmobility 	stopTime 	324.1
scalar LocScenario.node[25].veinsmobility 	minSpeed 	10.450007952726
scalar LocScenario.node[25].veinsmobility 	maxSpeed 	10.499953180528
scalar LocScenario.node[25].veinsmobility 	totalDistance 	2133.8773887492
scalar LocScenario.node[25].veinsmobility 	totalCO2Emission 	352.02605192243
scalar LocScenario.node[20].appl 	generatedWSMs 	0
scalar LocScenario.node[20].appl 	receivedWSMs 	0
scalar LocScenario.node[20].appl 	generatedBSMs 	2281
scalar LocScenario.node[20].appl 	receivedBSMs 	15098
scalar LocScenario.node[20].appl 	generatedWSAs 	0
scalar LocScenario.node[20].appl 	receivedWSAs 	0
scalar LocScenario.node[20].appl 	rmseSUMGPS 	706373.81976955
scalar LocScenario.node[20].appl 	rmseSUMCP 	821796.31622958
scalar LocScenario.node[20].appl 	delaySum 	1.6911888135742
scalar LocScenario.node[20].nic.phy80211p 	busyTime 	0.0068837878123653
scalar LocScenario.node[20].nic.mac1609_4 	ReceivedUnicastPackets 	0
scalar LocScenario.node[20].nic.mac1609_4 	ReceivedBroadcasts 	15098
scalar LocScenario.node[20].nic.mac1609_4 	SentPackets 	2281
scalar LocScenario.node[20].nic.mac1609_4 	SNIRLostPackets 	0
scalar LocScenario.node[20].nic.mac1609_4 	RXTXLostPackets 	0
scalar LocScenario.node[20].nic.mac1609_4 	TotalLostPackets 	0
scalar LocScenario.node[20].nic.mac1609_4 	DroppedPacketsInMac 	0
scalar LocScenario.node[20].nic.mac1609_4 	TooLittleTime 	0
scalar LocScenario.node[20].nic.mac1609_4 	TimesIntoBackoff 	2281
scalar LocScenario.node[20].nic.mac1609_4 	SlotsBackoff 	3399
scalar LocScenario.node[20].nic.mac1609_4 	NumInternalContention 	0
scalar LocScenario.node[20].nic.mac1609_4 	totalBusyTime 	1.809697
scalar LocScenario.node[20].veinsmobility 	startTime 	100.1
scalar LocScenario.node[20].veinsmobility 	totalTime 	228
scalar LocScenario.node[20].veinsmobility 	stopTime 	328.2
scalar LocScenario.node[20].veinsmobility 	minSpeed 	10.450035541714
scalar LocScenario.node[20].veinsmobility 	maxSpeed 	10.499996695993
scalar LocScenario.node[20].veinsmobility 	totalDistance 	2388.7545612155
scalar LocScenario.node[20].veinsmobility 	totalCO2Emission 	393.96971617114
scalar LocScenario.node[27].appl 	generatedWSMs 	0
scalar LocScenario.node[27].appl 	receivedWSMs 	0
scalar LocScenario.node[27].appl 	generatedBSMs 	2040
scalar LocScenario.node[27].appl 	receivedBSMs 	14530
scalar LocScenario.node[27].appl 	generatedWSAs 	0
scalar LocScenario.node[27].appl 	receivedWSAs 	0
scalar LocScenario.node[27].appl 	rmseSUMGPS 	762727.90363035
scalar LocScenario.node[27].appl 	rmseSUMCP 	648926.31370227
scalar LocScenario.node[27].appl 	delaySum 	1.6345150495871
scalar LocScenario.node[27].nic.phy80211p 	busyTime 	0.0074074509803944
scalar LocScenario.node[27].nic.mac1609_4 	ReceivedUnicastPackets 	0
scalar LocScenario.node[27].nic.mac1609_4 	ReceivedBroadcasts 	14530
scalar LocScenario.node[27].nic.mac1609_4 	SentPackets 	2040
scalar LocScenario.node[27].nic.mac1609_4 	SNIRLostPackets 	0
scalar LocScenario.node[27].nic.mac1609_4 	RXTXLostPackets 	0
scalar LocScenario.node[27].nic.mac1609_4 	TotalLostPackets 	0
scalar LocScenario.node[27].nic.mac1609_4 	DroppedPacketsInMac 	0
scalar LocScenario.node[27].nic.mac1609_4 	TooLittleTime 	0
scalar LocScenario.node[27].nic.mac1609_4 	TimesIntoBackoff 	2040
scalar LocScenario.node[27].nic.mac1609_4 	SlotsBackoff 	3186
scalar LocScenario.node[27].nic.mac1609_4 	NumInternalContention 	0
scalar LocScenario.node[27].nic.mac1609_4 	totalBusyTime 	1.72532
scalar LocScenario.node[27].veinsmobility 	startTime 	130.1
scalar LocScenario.node[27].veinsmobility 	totalTime 	203.9
scalar LocScenario.node[27].veinsmobility 	stopTime 	334.1
scalar LocScenario.node[27].veinsmobility 	minSpeed 	10.450006723171
scalar LocScenario.node[27].veinsmobility 	maxSpeed 	10.499998280231
scalar LocScenario.node[27].veinsmobility 	totalDistance 	2133.8504176731
scalar LocScenario.node[27].veinsmobility 	totalCO2Emission 	352.01313315367
scalar LocScenario.node[22].appl 	generatedWSMs 	0
scalar LocScenario.node[22].appl 	receivedWSMs 	0
scalar LocScenario.node[22].appl 	generatedBSMs 	2281
scalar LocScenario.node[22].appl 	receivedBSMs 	15317
scalar LocScenario.node[22].appl 	generatedWSAs 	0
scalar LocScenario.node[22].appl 	receivedWSAs 	0
scalar LocScenario.node[22].appl 	rmseSUMGPS 	81870.169922488
scalar LocScenario.node[22].appl 	rmseSUMCP 	735651.02555168
scalar LocScenario.node[22].appl 	delaySum 	1450.0762771008
scalar LocScenario.node[22].nic.phy80211p 	busyTime 	0.0069836387549344
scalar LocScenario.node[22].nic.mac1609_4 	ReceivedUnicastPackets 	0
scalar LocScenario.node[22].nic.mac1609_4 	ReceivedBroadcasts 	15317
scalar LocScenario.node[22].nic.mac1609_4 	SentPackets 	2281
scalar LocScenario.node[22].nic.mac1609_4 	SNIRLostPackets 	0
scalar LocScenario.node[22].nic.mac1609_4 	RXTXLostPackets 	0
scalar LocScenario.node[22].nic.mac1609_4 	TotalLostPackets 	0
scalar LocScenario.node[22].nic.mac1609_4 	DroppedPacketsInMac 	0
scalar LocScenario.node[22].nic.mac1609_4 	TooLittleTime 	0
scalar LocScenario.node[22].nic.mac1609_4 	TimesIntoBackoff 	2281
scalar LocScenario.node[22].nic.mac1609_4 	SlotsBackoff 	3459
scalar LocScenario.node[22].nic.mac1609_4 	NumInternalContention 	0
scalar LocScenario.node[22].nic.mac1609_4 	totalBusyTime 	1.832473
scalar LocScenario.node[22].veinsmobility 	startTime 	110.1
scalar LocScenario.node[22].veinsmobility 	totalTime 	228
scalar LocScenario.node[22].veinsmobility 	stopTime 	338.2
scalar LocScenario.node[22].veinsmobility 	minSpeed 	10.450010066002
scalar LocScenario.node[22].veinsmobility 	maxSpeed 	10.499996888894
scalar LocScenario.node[22].veinsmobility 	totalDistance 	2392.3114994638
scalar LocScenario.node[22].veinsmobility 	totalCO2Emission 	393.33552036379
scalar LocScenario.node[29].appl 	generatedWSMs 	0
scalar LocScenario.node[29].appl 	receivedWSMs 	0
scalar LocScenario.node[29].appl 	generatedBSMs 	2040
scalar LocScenario.node[29].appl 	receivedBSMs 	14726
scalar LocScenario.node[29].appl 	generatedWSAs 	0
scalar LocScenario.node[29].appl 	receivedWSAs 	0
scalar LocScenario.node[29].appl 	rmseSUMGPS 	754653.96379733
scalar LocScenario.node[29].appl 	rmseSUMCP 	647165.1033851
scalar LocScenario.node[29].appl 	delaySum 	1.6569018984394
scalar LocScenario.node[29].nic.phy80211p 	busyTime 	0.0075073725490219
scalar LocScenario.node[29].nic.mac1609_4 	ReceivedUnicastPackets 	0
scalar LocScenario.node[29].nic.mac1609_4 	ReceivedBroadcasts 	14726
scalar LocScenario.node[29].nic.mac1609_4 	SentPackets 	2040
scalar LocScenario.node[29].nic.mac1609_4 	SNIRLostPackets 	0
scalar LocScenario.node[29].nic.mac1609_4 	RXTXLostPackets 	0
scalar LocScenario.node[29].nic.mac1609_4 	TotalLostPackets 	0
scalar LocScenario.node[29].nic.mac1609_4 	DroppedPacketsInMac 	0
scalar LocScenario.node[29].nic.mac1609_4 	TooLittleTime 	0
scalar LocScenario.node[29].nic.mac1609_4 	TimesIntoBackoff 	2040
scalar LocScenario.node[29].nic.mac1609_4 	SlotsBackoff 	3099
scalar LocScenario.node[29].nic.mac1609_4 	NumInternalContention 	0
scalar LocScenario.node[29].nic.mac1609_4 	totalBusyTime 	1.745704
scalar LocScenario.node[29].veinsmobility 	startTime 	140.1
scalar LocScenario.node[29].veinsmobility 	totalTime 	203.9
scalar LocScenario.node[29].veinsmobility 	stopTime 	344.1
scalar LocScenario.node[29].veinsmobility 	minSpeed 	10.45002579405
scalar LocScenario.node[29].veinsmobility 	maxSpeed 	10.499988065974
scalar LocScenario.node[29].veinsmobility 	totalDistance 	2138.7033517266
scalar LocScenario.node[29].veinsmobility 	totalCO2Emission 	352.3571586728
scalar LocScenario.node[24].appl 	generatedWSMs 	0
scalar LocScenario.node[24].appl 	receivedWSMs 	0
scalar LocScenario.node[24].appl 	generatedBSMs 	2281
scalar LocScenario.node[24].appl 	receivedBSMs 	15537
scalar LocScenario.node[24].appl 	generatedWSAs 	0
scalar LocScenario.node[24].appl 	receivedWSAs 	0
scalar LocScenario.node[24].appl 	rmseSUMGPS 	26192.039370518
scalar LocScenario.node[24].appl 	rmseSUMCP 	705353.51692651
scalar LocScenario.node[24].appl 	delaySum 	-3.45936056023e+238
scalar LocScenario.node[24].nic.phy80211p 	busyTime 	0.0070839456378806
scalar LocScenario.node[24].nic.mac1609_4 	ReceivedUnicastPackets 	0
scalar LocScenario.node[24].nic.mac1609_4 	ReceivedBroadcasts 	15537
scalar LocScenario.node[24].nic.mac1609_4 	SentPackets 	2281
scalar LocScenario.node[24].nic.mac1609_4 	SNIRLostPackets 	0
scalar LocScenario.node[24].nic.mac1609_4 	RXTXLostPackets 	0
scalar LocScenario.node[24].nic.mac1609_4 	TotalLostPackets 	0
scalar LocScenario.node[24].nic.mac1609_4 	DroppedPacketsInMac 	0
scalar LocScenario.node[24].nic.mac1609_4 	TooLittleTime 	0
scalar LocScenario.node[24].nic.mac1609_4 	TimesIntoBackoff 	2281
scalar LocScenario.node[24].nic.mac1609_4 	SlotsBackoff 	3474
scalar LocScenario.node[24].nic.mac1609_4 	NumInternalContention 	0
scalar LocScenario.node[24].nic.mac1609_4 	totalBusyTime 	1.855353
scalar LocScenario.node[24].veinsmobility 	startTime 	120.1
scalar LocScenario.node[24].veinsmobility 	totalTime 	228
scalar LocScenario.node[24].veinsmobility 	stopTime 	348.2
scalar LocScenario.node[24].veinsmobility 	minSpeed 	10.450022832886
scalar LocScenario.node[24].veinsmobility 	maxSpeed 	10.499986771436
scalar LocScenario.node[24].veinsmobility 	totalDistance 	2394.8091062143
scalar LocScenario.node[24].veinsmobility 	totalCO2Emission 	393.50053392953
scalar LocScenario.node[31].appl 	generatedWSMs 	0
scalar LocScenario.node[31].appl 	receivedWSMs 	0
scalar LocScenario.node[31].appl 	generatedBSMs 	2040
scalar LocScenario.node[31].appl 	receivedBSMs 	14920
scalar LocScenario.node[31].appl 	generatedWSAs 	0
scalar LocScenario.node[31].appl 	receivedWSAs 	0
scalar LocScenario.node[31].appl 	rmseSUMGPS 	690735.43944095
scalar LocScenario.node[31].appl 	rmseSUMCP 	653019.27745602
scalar LocScenario.node[31].appl 	delaySum 	1.6694750168843
scalar LocScenario.node[31].nic.phy80211p 	busyTime 	0.0076062745098064
scalar LocScenario.node[31].nic.mac1609_4 	ReceivedUnicastPackets 	0
scalar LocScenario.node[31].nic.mac1609_4 	ReceivedBroadcasts 	14920
scalar LocScenario.node[31].nic.mac1609_4 	SentPackets 	2040
scalar LocScenario.node[31].nic.mac1609_4 	SNIRLostPackets 	0
scalar LocScenario.node[31].nic.mac1609_4 	RXTXLostPackets 	0
scalar LocScenario.node[31].nic.mac1609_4 	TotalLostPackets 	0
scalar LocScenario.node[31].nic.mac1609_4 	DroppedPacketsInMac 	0
scalar LocScenario.node[31].nic.mac1609_4 	TooLittleTime 	0
scalar LocScenario.node[31].nic.mac1609_4 	TimesIntoBackoff 	2040
scalar LocScenario.node[31].nic.mac1609_4 	SlotsBackoff 	3033
scalar LocScenario.node[31].nic.mac1609_4 	NumInternalContention 	0
scalar LocScenario.node[31].nic.mac1609_4 	totalBusyTime 	1.76588
scalar LocScenario.node[31].veinsmobility 	startTime 	150.1
scalar LocScenario.node[31].veinsmobility 	totalTime 	203.9
scalar LocScenario.node[31].veinsmobility 	stopTime 	354.1
scalar LocScenario.node[31].veinsmobility 	minSpeed 	10.450012219278
scalar LocScenario.node[31].veinsmobility 	maxSpeed 	10.499972721597
scalar LocScenario.node[31].veinsmobility 	totalDistance 	2138.6813456469
scalar LocScenario.node[31].veinsmobility 	totalCO2Emission 	352.05734733896
scalar LocScenario.node[26].appl 	generatedWSMs 	0
scalar LocScenario.node[26].appl 	receivedWSMs 	0
scalar LocScenario.node[26].appl 	generatedBSMs 	2281
scalar LocScenario.node[26].appl 	receivedBSMs 	15759
scalar LocScenario.node[26].appl 	generatedWSAs 	0
scalar LocScenario.node[26].appl 	receivedWSAs 	0
scalar LocScenario.node[26].appl 	rmseSUMGPS 	68239.361793172
scalar LocScenario.node[26].appl 	rmseSUMCP 	686379.85472754
scalar LocScenario.node[26].appl 	delaySum 	1.7640119286676
scalar LocScenario.node[26].nic.phy80211p 	busyTime 	0.0071851644015808
scalar LocScenario.node[26].nic.mac1609_4 	ReceivedUnicastPackets 	0
scalar LocScenario.node[26].nic.mac1609_4 	ReceivedBroadcasts 	15759
scalar LocScenario.node[26].nic.mac1609_4 	SentPackets 	2281
scalar LocScenario.node[26].nic.mac1609_4 	SNIRLostPackets 	0
scalar LocScenario.node[26].nic.mac1609_4 	RXTXLostPackets 	0
scalar LocScenario.node[26].nic.mac1609_4 	TotalLostPackets 	0
scalar LocScenario.node[26].nic.mac1609_4 	DroppedPacketsInMac 	0
scalar LocScenario.node[26].nic.mac1609_4 	TooLittleTime 	0
scalar LocScenario.node[26].nic.mac1609_4 	TimesIntoBackoff 	2281
scalar LocScenario.node[26].nic.mac1609_4 	SlotsBackoff 	3496
scalar LocScenario.node[26].nic.mac1609_4 	NumInternalContention 	0
scalar LocScenario.node[26].nic.mac1609_4 	totalBusyTime 	1.878441
scalar LocScenario.node[26].veinsmobility 	startTime 	130.1
scalar LocScenario.node[26].veinsmobility 	totalTime 	228
scalar LocScenario.node[26].veinsmobility 	stopTime 	358.2
scalar LocScenario.node[26].veinsmobility 	minSpeed 	10.450013937138
scalar LocScenario.node[26].veinsmobility 	maxSpeed 	10.499996393477
scalar LocScenario.node[26].veinsmobility 	totalDistance 	2392.1497194069
scalar LocScenario.node[26].veinsmobility 	totalCO2Emission 	393.15581488924
scalar LocScenario.node[33].appl 	generatedWSMs 	0
scalar LocScenario.node[33].appl 	receivedWSMs 	0
scalar LocScenario.node[33].appl 	generatedBSMs 	2040
scalar LocScenario.node[33].appl 	receivedBSMs 	15134
scalar LocScenario.node[33].appl 	generatedWSAs 	0
scalar LocScenario.node[33].appl 	receivedWSAs 	0
scalar LocScenario.node[33].appl 	rmseSUMGPS 	783840.17624122
scalar LocScenario.node[33].appl 	rmseSUMCP 	624529.27634363
scalar LocScenario.node[33].appl 	delaySum 	1.7029364970012
scalar LocScenario.node[33].nic.phy80211p 	busyTime 	0.0077153725490222
scalar LocScenario.node[33].nic.mac1609_4 	ReceivedUnicastPackets 	0
scalar LocScenario.node[33].nic.mac1609_4 	ReceivedBroadcasts 	15134
scalar LocScenario.node[33].nic.mac1609_4 	SentPackets 	2040
scalar LocScenario.node[33].nic.mac1609_4 	SNIRLostPackets 	0
scalar LocScenario.node[33].nic.mac1609_4 	RXTXLostPackets 	0
scalar LocScenario.node[33].nic.mac1609_4 	TotalLostPackets 	0
scalar LocScenario.node[33].nic.mac1609_4 	DroppedPacketsInMac 	0
scalar LocScenario.node[33].nic.mac1609_4 	TooLittleTime 	0
scalar LocScenario.node[33].nic.mac1609_4 	TimesIntoBackoff 	2040
scalar LocScenario.node[33].nic.mac1609_4 	SlotsBackoff 	3077
scalar LocScenario.node[33].nic.mac1609_4 	NumInternalContention 	0
scalar LocScenario.node[33].nic.mac1609_4 	totalBusyTime 	1.788136
scalar LocScenario.node[33].veinsmobility 	startTime 	160.1
scalar LocScenario.node[33].veinsmobility 	totalTime 	203.9
scalar LocScenario.node[33].veinsmobility 	stopTime 	364.1
scalar LocScenario.node[33].veinsmobility 	minSpeed 	10.450007538695
scalar LocScenario.node[33].veinsmobility 	maxSpeed 	10.499971242039
scalar LocScenario.node[33].veinsmobility 	totalDistance 	2133.8788140021
scalar LocScenario.node[33].veinsmobility 	totalCO2Emission 	352.30881323157
scalar LocScenario.node[28].appl 	generatedWSMs 	0
scalar LocScenario.node[28].appl 	receivedWSMs 	0
scalar LocScenario.node[28].appl 	generatedBSMs 	2281
scalar LocScenario.node[28].appl 	receivedBSMs 	15982
scalar LocScenario.node[28].appl 	generatedWSAs 	0
scalar LocScenario.node[28].appl 	receivedWSAs 	0
scalar LocScenario.node[28].appl 	rmseSUMGPS 	54227.96973592
scalar LocScenario.node[28].appl 	rmseSUMCP 	646036.79059223
scalar LocScenario.node[28].appl 	delaySum 	1.7960537888298
scalar LocScenario.node[28].nic.phy80211p 	busyTime 	0.0072868391056581
scalar LocScenario.node[28].nic.mac1609_4 	ReceivedUnicastPackets 	0
scalar LocScenario.node[28].nic.mac1609_4 	ReceivedBroadcasts 	15982
scalar LocScenario.node[28].nic.mac1609_4 	SentPackets 	2281
scalar LocScenario.node[28].nic.mac1609_4 	SNIRLostPackets 	0
scalar LocScenario.node[28].nic.mac1609_4 	RXTXLostPackets 	0
scalar LocScenario.node[28].nic.mac1609_4 	TotalLostPackets 	0
scalar LocScenario.node[28].nic.mac1609_4 	DroppedPacketsInMac 	0
scalar LocScenario.node[28].nic.mac1609_4 	TooLittleTime 	0
scalar LocScenario.node[28].nic.mac1609_4 	TimesIntoBackoff 	2281
scalar LocScenario.node[28].nic.mac1609_4 	SlotsBackoff 	3403
scalar LocScenario.node[28].nic.mac1609_4 	NumInternalContention 	0
scalar LocScenario.node[28].nic.mac1609_4 	totalBusyTime 	1.901633
scalar LocScenario.node[28].veinsmobility 	startTime 	140.1
scalar LocScenario.node[28].veinsmobility 	totalTime 	228
scalar LocScenario.node[28].veinsmobility 	stopTime 	368.2
scalar LocScenario.node[28].veinsmobility 	minSpeed 	10.450062152871
scalar LocScenario.node[28].veinsmobility 	maxSpeed 	10.499973973306
scalar LocScenario.node[28].veinsmobility 	totalDistance 	2392.4300022562
scalar LocScenario.node[28].veinsmobility 	totalCO2Emission 	393.34491306994
scalar LocScenario.node[35].appl 	generatedWSMs 	0
scalar LocScenario.node[35].appl 	receivedWSMs 	0
scalar LocScenario.node[35].appl 	generatedBSMs 	2040
scalar LocScenario.node[35].appl 	receivedBSMs 	15280
scalar LocScenario.node[35].appl 	generatedWSAs 	0
scalar LocScenario.node[35].appl 	receivedWSAs 	0
scalar LocScenario.node[35].appl 	rmseSUMGPS 	756569.51817883
scalar LocScenario.node[35].appl 	rmseSUMCP 	644567.38259791
scalar LocScenario.node[35].appl 	delaySum 	1.7157501699822
scalar LocScenario.node[35].nic.phy80211p 	busyTime 	0.0078203921568654
scalar LocScenario.node[35].nic.mac1609_4 	ReceivedUnicastPackets 	0
scalar LocScenario.node[35].nic.mac1609_4 	ReceivedBroadcasts 	15280
scalar LocScenario.node[35].nic.mac1609_4 	SentPackets 	2040
scalar LocScenario.node[35].nic.mac1609_4 	SNIRLostPackets 	60
scalar LocScenario.node[35].nic.mac1609_4 	RXTXLostPackets 	0
scalar LocScenario.node[35].nic.mac1609_4 	TotalLostPackets 	60
scalar LocScenario.node[35].nic.mac1609_4 	DroppedPacketsInMac 	0
scalar LocScenario.node[35].nic.mac1609_4 	TooLittleTime 	0
scalar LocScenario.node[35].nic.mac1609_4 	TimesIntoBackoff 	2040
scalar LocScenario.node[35].nic.mac1609_4 	SlotsBackoff 	3114
scalar LocScenario.node[35].nic.mac1609_4 	NumInternalContention 	0
scalar LocScenario.node[35].nic.mac1609_4 	totalBusyTime 	1.807792
scalar LocScenario.node[35].veinsmobility 	startTime 	170.1
scalar LocScenario.node[35].veinsmobility 	totalTime 	203.9
scalar LocScenario.node[35].veinsmobility 	stopTime 	374.1
scalar LocScenario.node[35].veinsmobility 	minSpeed 	10.450009765301
scalar LocScenario.node[35].veinsmobility 	maxSpeed 	10.499981130706
scalar LocScenario.node[35].veinsmobility 	totalDistance 	2133.7806968998
scalar LocScenario.node[35].veinsmobility 	totalCO2Emission 	351.96209220161
scalar LocScenario.node[30].appl 	generatedWSMs 	0
scalar LocScenario.node[30].appl 	receivedWSMs 	0
scalar LocScenario.node[30].appl 	generatedBSMs 	2281
scalar LocScenario.node[30].appl 	receivedBSMs 	16202
scalar LocScenario.node[30].appl 	generatedWSAs 	0
scalar LocScenario.node[30].appl 	receivedWSAs 	0
scalar LocScenario.node[30].appl 	rmseSUMGPS 	35696.154005391
scalar LocScenario.node[30].appl 	rmseSUMCP 	664416.82674257
scalar LocScenario.node[30].appl 	delaySum 	1.8285585584273
scalar LocScenario.node[30].nic.phy80211p 	busyTime 	0.0073871459886043
scalar LocScenario.node[30].nic.mac1609_4 	ReceivedUnicastPackets 	0
scalar LocScenario.node[30].nic.mac1609_4 	ReceivedBroadcasts 	16202
scalar LocScenario.node[30].nic.mac1609_4 	SentPackets 	2281
scalar LocScenario.node[30].nic.mac1609_4 	SNIRLostPackets 	0
scalar LocScenario.node[30].nic.mac1609_4 	RXTXLostPackets 	0
scalar LocScenario.node[30].nic.mac1609_4 	TotalLostPackets 	0
scalar LocScenario.node[30].nic.mac1609_4 	DroppedPacketsInMac 	0
scalar LocScenario.node[30].nic.mac1609_4 	TooLittleTime 	0
scalar LocScenario.node[30].nic.mac1609_4 	TimesIntoBackoff 	2281
scalar LocScenario.node[30].nic.mac1609_4 	SlotsBackoff 	3433
scalar LocScenario.node[30].nic.mac1609_4 	NumInternalContention 	0
scalar LocScenario.node[30].nic.mac1609_4 	totalBusyTime 	1.924513
scalar LocScenario.node[30].veinsmobility 	startTime 	150.1
scalar LocScenario.node[30].veinsmobility 	totalTime 	228
scalar LocScenario.node[30].veinsmobility 	stopTime 	378.2
scalar LocScenario.node[30].veinsmobility 	minSpeed 	10.450008719007
scalar LocScenario.node[30].veinsmobility 	maxSpeed 	10.499990267737
scalar LocScenario.node[30].veinsmobility 	totalDistance 	2394.7491010055
scalar LocScenario.node[30].veinsmobility 	totalCO2Emission 	393.86335607561
scalar LocScenario.node[37].appl 	generatedWSMs 	0
scalar LocScenario.node[37].appl 	receivedWSMs 	0
scalar LocScenario.node[37].appl 	generatedBSMs 	2040
scalar LocScenario.node[37].appl 	receivedBSMs 	15450
scalar LocScenario.node[37].appl 	generatedWSAs 	0
scalar LocScenario.node[37].appl 	receivedWSAs 	0
scalar LocScenario.node[37].appl 	rmseSUMGPS 	751412.32382332
scalar LocScenario.node[37].appl 	rmseSUMCP 	638558.74749121
scalar LocScenario.node[37].appl 	delaySum 	1.7293993953093
scalar LocScenario.node[37].nic.phy80211p 	busyTime 	0.0079172549019635
scalar LocScenario.node[37].nic.mac1609_4 	ReceivedUnicastPackets 	0
scalar LocScenario.node[37].nic.mac1609_4 	ReceivedBroadcasts 	15450
scalar LocScenario.node[37].nic.mac1609_4 	SentPackets 	2040
scalar LocScenario.node[37].nic.mac1609_4 	SNIRLostPackets 	80
scalar LocScenario.node[37].nic.mac1609_4 	RXTXLostPackets 	0
scalar LocScenario.node[37].nic.mac1609_4 	TotalLostPackets 	80
scalar LocScenario.node[37].nic.mac1609_4 	DroppedPacketsInMac 	0
scalar LocScenario.node[37].nic.mac1609_4 	TooLittleTime 	0
scalar LocScenario.node[37].nic.mac1609_4 	TimesIntoBackoff 	2040
scalar LocScenario.node[37].nic.mac1609_4 	SlotsBackoff 	3119
scalar LocScenario.node[37].nic.mac1609_4 	NumInternalContention 	0
scalar LocScenario.node[37].nic.mac1609_4 	totalBusyTime 	1.82724
scalar LocScenario.node[37].veinsmobility 	startTime 	180.1
scalar LocScenario.node[37].veinsmobility 	totalTime 	203.9
scalar LocScenario.node[37].veinsmobility 	stopTime 	384.1
scalar LocScenario.node[37].veinsmobility 	minSpeed 	10.4500110897
scalar LocScenario.node[37].veinsmobility 	maxSpeed 	10.499981009366
scalar LocScenario.node[37].veinsmobility 	totalDistance 	2133.8706821392
scalar LocScenario.node[37].veinsmobility 	totalCO2Emission 	351.54856683293
scalar LocScenario.node[32].appl 	generatedWSMs 	0
scalar LocScenario.node[32].appl 	receivedWSMs 	0
scalar LocScenario.node[32].appl 	generatedBSMs 	2281
scalar LocScenario.node[32].appl 	receivedBSMs 	16418
scalar LocScenario.node[32].appl 	generatedWSAs 	0
scalar LocScenario.node[32].appl 	receivedWSAs 	0
scalar LocScenario.node[32].appl 	rmseSUMGPS 	645325.96614356
scalar LocScenario.node[32].appl 	rmseSUMCP 	685761.44667482
scalar LocScenario.node[32].appl 	delaySum 	4.5330361814458e+26
scalar LocScenario.node[32].nic.phy80211p 	busyTime 	0.0074856291100423
scalar LocScenario.node[32].nic.mac1609_4 	ReceivedUnicastPackets 	0
scalar LocScenario.node[32].nic.mac1609_4 	ReceivedBroadcasts 	16418
scalar LocScenario.node[32].nic.mac1609_4 	SentPackets 	2281
scalar LocScenario.node[32].nic.mac1609_4 	SNIRLostPackets 	0
scalar LocScenario.node[32].nic.mac1609_4 	RXTXLostPackets 	0
scalar LocScenario.node[32].nic.mac1609_4 	TotalLostPackets 	0
scalar LocScenario.node[32].nic.mac1609_4 	DroppedPacketsInMac 	0
scalar LocScenario.node[32].nic.mac1609_4 	TooLittleTime 	0
scalar LocScenario.node[32].nic.mac1609_4 	TimesIntoBackoff 	2281
scalar LocScenario.node[32].nic.mac1609_4 	SlotsBackoff 	3381
scalar LocScenario.node[32].nic.mac1609_4 	NumInternalContention 	0
scalar LocScenario.node[32].nic.mac1609_4 	totalBusyTime 	1.946977
scalar LocScenario.node[32].veinsmobility 	startTime 	160.1
scalar LocScenario.node[32].veinsmobility 	totalTime 	228
scalar LocScenario.node[32].veinsmobility 	stopTime 	388.2
scalar LocScenario.node[32].veinsmobility 	minSpeed 	10.450018824835
scalar LocScenario.node[32].veinsmobility 	maxSpeed 	10.499965757935
scalar LocScenario.node[32].veinsmobility 	totalDistance 	2388.7708442123
scalar LocScenario.node[32].veinsmobility 	totalCO2Emission 	393.22915012081
scalar LocScenario.node[39].appl 	generatedWSMs 	0
scalar LocScenario.node[39].appl 	receivedWSMs 	0
scalar LocScenario.node[39].appl 	generatedBSMs 	2040
scalar LocScenario.node[39].appl 	receivedBSMs 	15633
scalar LocScenario.node[39].appl 	generatedWSAs 	0
scalar LocScenario.node[39].appl 	receivedWSAs 	0
scalar LocScenario.node[39].appl 	rmseSUMGPS 	897890.30375692
scalar LocScenario.node[39].appl 	rmseSUMCP 	648575.33734755
scalar LocScenario.node[39].appl 	delaySum 	1.7607607941353
scalar LocScenario.node[39].nic.phy80211p 	busyTime 	0.0080105490196107
scalar LocScenario.node[39].nic.mac1609_4 	ReceivedUnicastPackets 	0
scalar LocScenario.node[39].nic.mac1609_4 	ReceivedBroadcasts 	15633
scalar LocScenario.node[39].nic.mac1609_4 	SentPackets 	2040
scalar LocScenario.node[39].nic.mac1609_4 	SNIRLostPackets 	80
scalar LocScenario.node[39].nic.mac1609_4 	RXTXLostPackets 	0
scalar LocScenario.node[39].nic.mac1609_4 	TotalLostPackets 	80
scalar LocScenario.node[39].nic.mac1609_4 	DroppedPacketsInMac 	0
scalar LocScenario.node[39].nic.mac1609_4 	TooLittleTime 	0
scalar LocScenario.node[39].nic.mac1609_4 	TimesIntoBackoff 	2040
scalar LocScenario.node[39].nic.mac1609_4 	SlotsBackoff 	3089
scalar LocScenario.node[39].nic.mac1609_4 	NumInternalContention 	0
scalar LocScenario.node[39].nic.mac1609_4 	totalBusyTime 	1.84648
scalar LocScenario.node[39].veinsmobility 	startTime 	190.1
scalar LocScenario.node[39].veinsmobility 	totalTime 	203.9
scalar LocScenario.node[39].veinsmobility 	stopTime 	394.1
scalar LocScenario.node[39].veinsmobility 	minSpeed 	10.450020534324
scalar LocScenario.node[39].veinsmobility 	maxSpeed 	10.499982579367
scalar LocScenario.node[39].veinsmobility 	totalDistance 	2133.8389891311
scalar LocScenario.node[39].veinsmobility 	totalCO2Emission 	352.1811496127
scalar LocScenario.node[34].appl 	generatedWSMs 	0
scalar LocScenario.node[34].appl 	receivedWSMs 	0
scalar LocScenario.node[34].appl 	generatedBSMs 	2281
scalar LocScenario.node[34].appl 	receivedBSMs 	16630
scalar LocScenario.node[34].appl 	generatedWSAs 	0
scalar LocScenario.node[34].appl 	receivedWSAs 	0
scalar LocScenario.node[34].appl 	rmseSUMGPS 	436406.77345162
scalar LocScenario.node[34].appl 	rmseSUMCP 	662944.5404269
scalar LocScenario.node[34].appl 	delaySum 	5.3820208036683e+228
scalar LocScenario.node[34].nic.phy80211p 	busyTime 	0.0075822884699723
scalar LocScenario.node[34].nic.mac1609_4 	ReceivedUnicastPackets 	0
scalar LocScenario.node[34].nic.mac1609_4 	ReceivedBroadcasts 	16630
scalar LocScenario.node[34].nic.mac1609_4 	SentPackets 	2281
scalar LocScenario.node[34].nic.mac1609_4 	SNIRLostPackets 	0
scalar LocScenario.node[34].nic.mac1609_4 	RXTXLostPackets 	0
scalar LocScenario.node[34].nic.mac1609_4 	TotalLostPackets 	0
scalar LocScenario.node[34].nic.mac1609_4 	DroppedPacketsInMac 	0
scalar LocScenario.node[34].nic.mac1609_4 	TooLittleTime 	0
scalar LocScenario.node[34].nic.mac1609_4 	TimesIntoBackoff 	2281
scalar LocScenario.node[34].nic.mac1609_4 	SlotsBackoff 	3401
scalar LocScenario.node[34].nic.mac1609_4 	NumInternalContention 	0
scalar LocScenario.node[34].nic.mac1609_4 	totalBusyTime 	1.969025
scalar LocScenario.node[34].veinsmobility 	startTime 	170.1
scalar LocScenario.node[34].veinsmobility 	totalTime 	228
scalar LocScenario.node[34].veinsmobility 	stopTime 	398.2
scalar LocScenario.node[34].veinsmobility 	minSpeed 	10.450010662701
scalar LocScenario.node[34].veinsmobility 	maxSpeed 	10.499971371866
scalar LocScenario.node[34].veinsmobility 	totalDistance 	2392.246112465
scalar LocScenario.node[34].veinsmobility 	totalCO2Emission 	394.35207083791
scalar LocScenario.node[41].appl 	generatedWSMs 	0
scalar LocScenario.node[41].appl 	receivedWSMs 	0
scalar LocScenario.node[41].appl 	generatedBSMs 	2040
scalar LocScenario.node[41].appl 	receivedBSMs 	15742
scalar LocScenario.node[41].appl 	generatedWSAs 	0
scalar LocScenario.node[41].appl 	receivedWSAs 	0
scalar LocScenario.node[41].appl 	rmseSUMGPS 	1042172.6708275
scalar LocScenario.node[41].appl 	rmseSUMCP 	646543.0792932
scalar LocScenario.node[41].appl 	delaySum 	1.7723687678271
scalar LocScenario.node[41].nic.phy80211p 	busyTime 	0.0080666274509833
scalar LocScenario.node[41].nic.mac1609_4 	ReceivedUnicastPackets 	0
scalar LocScenario.node[41].nic.mac1609_4 	ReceivedBroadcasts 	15742
scalar LocScenario.node[41].nic.mac1609_4 	SentPackets 	2040
scalar LocScenario.node[41].nic.mac1609_4 	SNIRLostPackets 	81
scalar LocScenario.node[41].nic.mac1609_4 	RXTXLostPackets 	0
scalar LocScenario.node[41].nic.mac1609_4 	TotalLostPackets 	81
scalar LocScenario.node[41].nic.mac1609_4 	DroppedPacketsInMac 	0
scalar LocScenario.node[41].nic.mac1609_4 	TooLittleTime 	0
scalar LocScenario.node[41].nic.mac1609_4 	TimesIntoBackoff 	2040
scalar LocScenario.node[41].nic.mac1609_4 	SlotsBackoff 	2937
scalar LocScenario.node[41].nic.mac1609_4 	NumInternalContention 	0
scalar LocScenario.node[41].nic.mac1609_4 	totalBusyTime 	1.857816
scalar LocScenario.node[41].veinsmobility 	startTime 	200.1
scalar LocScenario.node[41].veinsmobility 	totalTime 	203.9
scalar LocScenario.node[41].veinsmobility 	stopTime 	404.1
scalar LocScenario.node[41].veinsmobility 	minSpeed 	10.450011773116
scalar LocScenario.node[41].veinsmobility 	maxSpeed 	10.499979414837
scalar LocScenario.node[41].veinsmobility 	totalDistance 	2138.8924123554
scalar LocScenario.node[41].veinsmobility 	totalCO2Emission 	351.57941891454
scalar LocScenario.node[36].appl 	generatedWSMs 	0
scalar LocScenario.node[36].appl 	receivedWSMs 	0
scalar LocScenario.node[36].appl 	generatedBSMs 	2281
scalar LocScenario.node[36].appl 	receivedBSMs 	16844
scalar LocScenario.node[36].appl 	generatedWSAs 	0
scalar LocScenario.node[36].appl 	receivedWSAs 	0
scalar LocScenario.node[36].appl 	rmseSUMGPS 	21736.040836475
scalar LocScenario.node[36].appl 	rmseSUMCP 	672634.53942961
scalar LocScenario.node[36].appl 	delaySum 	4.7802419384537e+183
scalar LocScenario.node[36].nic.phy80211p 	busyTime 	0.0076807715914103
scalar LocScenario.node[36].nic.mac1609_4 	ReceivedUnicastPackets 	0
scalar LocScenario.node[36].nic.mac1609_4 	ReceivedBroadcasts 	16844
scalar LocScenario.node[36].nic.mac1609_4 	SentPackets 	2281
scalar LocScenario.node[36].nic.mac1609_4 	SNIRLostPackets 	2
scalar LocScenario.node[36].nic.mac1609_4 	RXTXLostPackets 	0
scalar LocScenario.node[36].nic.mac1609_4 	TotalLostPackets 	2
scalar LocScenario.node[36].nic.mac1609_4 	DroppedPacketsInMac 	0
scalar LocScenario.node[36].nic.mac1609_4 	TooLittleTime 	0
scalar LocScenario.node[36].nic.mac1609_4 	TimesIntoBackoff 	2281
scalar LocScenario.node[36].nic.mac1609_4 	SlotsBackoff 	3386
scalar LocScenario.node[36].nic.mac1609_4 	NumInternalContention 	0
scalar LocScenario.node[36].nic.mac1609_4 	totalBusyTime 	1.991489
scalar LocScenario.node[36].veinsmobility 	startTime 	180.1
scalar LocScenario.node[36].veinsmobility 	totalTime 	228
scalar LocScenario.node[36].veinsmobility 	stopTime 	408.2
scalar LocScenario.node[36].veinsmobility 	minSpeed 	10.45004249271
scalar LocScenario.node[36].veinsmobility 	maxSpeed 	10.499984839535
scalar LocScenario.node[36].veinsmobility 	totalDistance 	2392.3830334784
scalar LocScenario.node[36].veinsmobility 	totalCO2Emission 	393.38082773224
scalar LocScenario.node[43].appl 	generatedWSMs 	0
scalar LocScenario.node[43].appl 	receivedWSMs 	0
scalar LocScenario.node[43].appl 	generatedBSMs 	2040
scalar LocScenario.node[43].appl 	receivedBSMs 	15863
scalar LocScenario.node[43].appl 	generatedWSAs 	0
scalar LocScenario.node[43].appl 	receivedWSAs 	0
scalar LocScenario.node[43].appl 	rmseSUMGPS 	333261.75045419
scalar LocScenario.node[43].appl 	rmseSUMCP 	654585.14515338
scalar LocScenario.node[43].appl 	delaySum 	1.7748295620874
scalar LocScenario.node[43].nic.phy80211p 	busyTime 	0.0081257647058853
scalar LocScenario.node[43].nic.mac1609_4 	ReceivedUnicastPackets 	0
scalar LocScenario.node[43].nic.mac1609_4 	ReceivedBroadcasts 	15863
scalar LocScenario.node[43].nic.mac1609_4 	SentPackets 	2040
scalar LocScenario.node[43].nic.mac1609_4 	SNIRLostPackets 	76
scalar LocScenario.node[43].nic.mac1609_4 	RXTXLostPackets 	0
scalar LocScenario.node[43].nic.mac1609_4 	TotalLostPackets 	76
scalar LocScenario.node[43].nic.mac1609_4 	DroppedPacketsInMac 	0
scalar LocScenario.node[43].nic.mac1609_4 	TooLittleTime 	0
scalar LocScenario.node[43].nic.mac1609_4 	TimesIntoBackoff 	2077
scalar LocScenario.node[43].nic.mac1609_4 	SlotsBackoff 	3130
scalar LocScenario.node[43].nic.mac1609_4 	NumInternalContention 	0
scalar LocScenario.node[43].nic.mac1609_4 	totalBusyTime 	1.870088
scalar LocScenario.node[43].veinsmobility 	startTime 	210.1
scalar LocScenario.node[43].veinsmobility 	totalTime 	203.9
scalar LocScenario.node[43].veinsmobility 	stopTime 	414.1
scalar LocScenario.node[43].veinsmobility 	minSpeed 	10.450007514551
scalar LocScenario.node[43].veinsmobility 	maxSpeed 	10.499972962739
scalar LocScenario.node[43].veinsmobility 	totalDistance 	2133.9216024743
scalar LocScenario.node[43].veinsmobility 	totalCO2Emission 	352.06230498938
scalar LocScenario.node[38].appl 	generatedWSMs 	0
scalar LocScenario.node[38].appl 	receivedWSMs 	0
scalar LocScenario.node[38].appl 	generatedBSMs 	2281
scalar LocScenario.node[38].appl 	receivedBSMs 	16929
scalar LocScenario.node[38].appl 	generatedWSAs 	0
scalar LocScenario.node[38].appl 	receivedWSAs 	0
scalar LocScenario.node[38].appl 	rmseSUMGPS 	69642.680457543
scalar LocScenario.node[38].appl 	rmseSUMCP 	680809.87593309
scalar LocScenario.node[38].appl 	delaySum 	1.9209786735292
scalar LocScenario.node[38].nic.phy80211p 	busyTime 	0.0077450591845713
scalar LocScenario.node[38].nic.mac1609_4 	ReceivedUnicastPackets 	0
scalar LocScenario.node[38].nic.mac1609_4 	ReceivedBroadcasts 	16929
scalar LocScenario.node[38].nic.mac1609_4 	SentPackets 	2281
scalar LocScenario.node[38].nic.mac1609_4 	SNIRLostPackets 	58
scalar LocScenario.node[38].nic.mac1609_4 	RXTXLostPackets 	0
scalar LocScenario.node[38].nic.mac1609_4 	TotalLostPackets 	58
scalar LocScenario.node[38].nic.mac1609_4 	DroppedPacketsInMac 	0
scalar LocScenario.node[38].nic.mac1609_4 	TooLittleTime 	0
scalar LocScenario.node[38].nic.mac1609_4 	TimesIntoBackoff 	2281
scalar LocScenario.node[38].nic.mac1609_4 	SlotsBackoff 	3504
scalar LocScenario.node[38].nic.mac1609_4 	NumInternalContention 	0
scalar LocScenario.node[38].nic.mac1609_4 	totalBusyTime 	2.003137
scalar LocScenario.node[38].veinsmobility 	startTime 	190.1
scalar LocScenario.node[38].veinsmobility 	totalTime 	228
scalar LocScenario.node[38].veinsmobility 	stopTime 	418.2
scalar LocScenario.node[38].veinsmobility 	minSpeed 	10.45000714754
scalar LocScenario.node[38].veinsmobility 	maxSpeed 	10.499948677374
scalar LocScenario.node[38].veinsmobility 	totalDistance 	2392.3073968358
scalar LocScenario.node[38].veinsmobility 	totalCO2Emission 	393.41362396101
scalar LocScenario.node[45].appl 	generatedWSMs 	0
scalar LocScenario.node[45].appl 	receivedWSMs 	0
scalar LocScenario.node[45].appl 	generatedBSMs 	2040
scalar LocScenario.node[45].appl 	receivedBSMs 	15891
scalar LocScenario.node[45].appl 	generatedWSAs 	0
scalar LocScenario.node[45].appl 	receivedWSAs 	0
scalar LocScenario.node[45].appl 	rmseSUMGPS 	647005.68148564
scalar LocScenario.node[45].appl 	rmseSUMCP 	627286.27071402
scalar LocScenario.node[45].appl 	delaySum 	-5261.1894118462
scalar LocScenario.node[45].nic.phy80211p 	busyTime 	0.0081410588235324
scalar LocScenario.node[45].nic.mac1609_4 	ReceivedUnicastPackets 	0
scalar LocScenario.node[45].nic.mac1609_4 	ReceivedBroadcasts 	15891
scalar LocScenario.node[45].nic.mac1609_4 	SentPackets 	2040
scalar LocScenario.node[45].nic.mac1609_4 	SNIRLostPackets 	78
scalar LocScenario.node[45].nic.mac1609_4 	RXTXLostPackets 	0
scalar LocScenario.node[45].nic.mac1609_4 	TotalLostPackets 	78
scalar LocScenario.node[45].nic.mac1609_4 	DroppedPacketsInMac 	0
scalar LocScenario.node[45].nic.mac1609_4 	TooLittleTime 	0
scalar LocScenario.node[45].nic.mac1609_4 	TimesIntoBackoff 	2040
[...]
scalar LocScenario.node[586].veinsmobility 	totalTime 	228
scalar LocScenario.node[586].veinsmobility 	stopTime 	3158.2
scalar LocScenario.node[586].veinsmobility 	minSpeed 	10.45000958395
scalar LocScenario.node[586].veinsmobility 	maxSpeed 	10.499993706809
scalar LocScenario.node[586].veinsmobility 	totalDistance 	2388.752678314
scalar LocScenario.node[586].veinsmobility 	totalCO2Emission 	394.29804053913
scalar LocScenario.node[593].appl 	generatedWSMs 	0
scalar LocScenario.node[593].appl 	receivedWSMs 	0
scalar LocScenario.node[593].appl 	generatedBSMs 	2040
scalar LocScenario.node[593].appl 	receivedBSMs 	12521
scalar LocScenario.node[593].appl 	generatedWSAs 	0
scalar LocScenario.node[593].appl 	receivedWSAs 	0
scalar LocScenario.node[593].appl 	rmseSUMGPS 	321362.44838769
scalar LocScenario.node[593].appl 	rmseSUMCP 	1107968.1460526
scalar LocScenario.node[593].appl 	delaySum 	8.87414961167
scalar LocScenario.node[593].nic.phy80211p 	busyTime 	0.006383254901962
scalar LocScenario.node[593].nic.mac1609_4 	ReceivedUnicastPackets 	0
scalar LocScenario.node[593].nic.mac1609_4 	ReceivedBroadcasts 	12521
scalar LocScenario.node[593].nic.mac1609_4 	SentPackets 	2040
scalar LocScenario.node[593].nic.mac1609_4 	SNIRLostPackets 	0
scalar LocScenario.node[593].nic.mac1609_4 	RXTXLostPackets 	0
scalar LocScenario.node[593].nic.mac1609_4 	TotalLostPackets 	0
scalar LocScenario.node[593].nic.mac1609_4 	DroppedPacketsInMac 	0
scalar LocScenario.node[593].nic.mac1609_4 	TooLittleTime 	0
scalar LocScenario.node[593].nic.mac1609_4 	TimesIntoBackoff 	2040
scalar LocScenario.node[593].nic.mac1609_4 	SlotsBackoff 	3040
scalar LocScenario.node[593].nic.mac1609_4 	NumInternalContention 	0
scalar LocScenario.node[593].nic.mac1609_4 	totalBusyTime 	1.516384
scalar LocScenario.node[593].veinsmobility 	startTime 	2960.1
scalar LocScenario.node[593].veinsmobility 	totalTime 	203.9
scalar LocScenario.node[593].veinsmobility 	stopTime 	3164.1
scalar LocScenario.node[593].veinsmobility 	minSpeed 	10.45001302954
scalar LocScenario.node[593].veinsmobility 	maxSpeed 	10.499991310423
scalar LocScenario.node[593].veinsmobility 	totalDistance 	2138.7570128481
scalar LocScenario.node[593].veinsmobility 	totalCO2Emission 	351.72877463148
scalar LocScenario.node[588].appl 	generatedWSMs 	0
scalar LocScenario.node[588].appl 	receivedWSMs 	0
scalar LocScenario.node[588].appl 	generatedBSMs 	2281
scalar LocScenario.node[588].appl 	receivedBSMs 	13816
scalar LocScenario.node[588].appl 	generatedWSAs 	0
scalar LocScenario.node[588].appl 	receivedWSAs 	0
scalar LocScenario.node[588].appl 	rmseSUMGPS 	874074.60922552
scalar LocScenario.node[588].appl 	rmseSUMCP 	31531446.480006
scalar LocScenario.node[588].appl 	delaySum 	3.3036935709715
scalar LocScenario.node[588].nic.phy80211p 	busyTime 	0.0062992722490153
scalar LocScenario.node[588].nic.mac1609_4 	ReceivedUnicastPackets 	0
scalar LocScenario.node[588].nic.mac1609_4 	ReceivedBroadcasts 	13816
scalar LocScenario.node[588].nic.mac1609_4 	SentPackets 	2281
scalar LocScenario.node[588].nic.mac1609_4 	SNIRLostPackets 	0
scalar LocScenario.node[588].nic.mac1609_4 	RXTXLostPackets 	0
scalar LocScenario.node[588].nic.mac1609_4 	TotalLostPackets 	0
scalar LocScenario.node[588].nic.mac1609_4 	DroppedPacketsInMac 	0
scalar LocScenario.node[588].nic.mac1609_4 	TooLittleTime 	0
scalar LocScenario.node[588].nic.mac1609_4 	TimesIntoBackoff 	2281
scalar LocScenario.node[588].nic.mac1609_4 	SlotsBackoff 	3345
scalar LocScenario.node[588].nic.mac1609_4 	NumInternalContention 	0
scalar LocScenario.node[588].nic.mac1609_4 	totalBusyTime 	1.676369
scalar LocScenario.node[588].veinsmobility 	startTime 	2940.1
scalar LocScenario.node[588].veinsmobility 	totalTime 	228
scalar LocScenario.node[588].veinsmobility 	stopTime 	3168.2
scalar LocScenario.node[588].veinsmobility 	minSpeed 	10.450028878474
scalar LocScenario.node[588].veinsmobility 	maxSpeed 	10.499963232619
scalar LocScenario.node[588].veinsmobility 	totalDistance 	2388.8827232141
scalar LocScenario.node[588].veinsmobility 	totalCO2Emission 	393.43783065932
scalar LocScenario.node[595].appl 	generatedWSMs 	0
scalar LocScenario.node[595].appl 	receivedWSMs 	0
scalar LocScenario.node[595].appl 	generatedBSMs 	2040
scalar LocScenario.node[595].appl 	receivedBSMs 	12326
scalar LocScenario.node[595].appl 	generatedWSAs 	0
scalar LocScenario.node[595].appl 	receivedWSAs 	0
scalar LocScenario.node[595].appl 	rmseSUMGPS 	641309.61998974
scalar LocScenario.node[595].appl 	rmseSUMCP 	1122349.5474995
scalar LocScenario.node[595].appl 	delaySum 	8.7611967719658
scalar LocScenario.node[595].nic.phy80211p 	busyTime 	0.006283843137256
scalar LocScenario.node[595].nic.mac1609_4 	ReceivedUnicastPackets 	0
scalar LocScenario.node[595].nic.mac1609_4 	ReceivedBroadcasts 	12326
scalar LocScenario.node[595].nic.mac1609_4 	SentPackets 	2040
scalar LocScenario.node[595].nic.mac1609_4 	SNIRLostPackets 	0
scalar LocScenario.node[595].nic.mac1609_4 	RXTXLostPackets 	0
scalar LocScenario.node[595].nic.mac1609_4 	TotalLostPackets 	0
scalar LocScenario.node[595].nic.mac1609_4 	DroppedPacketsInMac 	0
scalar LocScenario.node[595].nic.mac1609_4 	TooLittleTime 	0
scalar LocScenario.node[595].nic.mac1609_4 	TimesIntoBackoff 	2040
scalar LocScenario.node[595].nic.mac1609_4 	SlotsBackoff 	3022
scalar LocScenario.node[595].nic.mac1609_4 	NumInternalContention 	0
scalar LocScenario.node[595].nic.mac1609_4 	totalBusyTime 	1.496104
scalar LocScenario.node[595].veinsmobility 	startTime 	2970.1
scalar LocScenario.node[595].veinsmobility 	totalTime 	203.9
scalar LocScenario.node[595].veinsmobility 	stopTime 	3174.1
scalar LocScenario.node[595].veinsmobility 	minSpeed 	10.450004854309
scalar LocScenario.node[595].veinsmobility 	maxSpeed 	10.499941783107
scalar LocScenario.node[595].veinsmobility 	totalDistance 	2133.8292027644
scalar LocScenario.node[595].veinsmobility 	totalCO2Emission 	351.95856691644
scalar LocScenario.node[590].appl 	generatedWSMs 	0
scalar LocScenario.node[590].appl 	receivedWSMs 	0
scalar LocScenario.node[590].appl 	generatedBSMs 	2281
scalar LocScenario.node[590].appl 	receivedBSMs 	13593
scalar LocScenario.node[590].appl 	generatedWSAs 	0
scalar LocScenario.node[590].appl 	receivedWSAs 	0
scalar LocScenario.node[590].appl 	rmseSUMGPS 	53430.002176217
scalar LocScenario.node[590].appl 	rmseSUMCP 	40030581.947648
scalar LocScenario.node[590].appl 	delaySum 	8.882965926723
scalar LocScenario.node[590].nic.phy80211p 	busyTime 	0.006197597544938
scalar LocScenario.node[590].nic.mac1609_4 	ReceivedUnicastPackets 	0
scalar LocScenario.node[590].nic.mac1609_4 	ReceivedBroadcasts 	13593
scalar LocScenario.node[590].nic.mac1609_4 	SentPackets 	2281
scalar LocScenario.node[590].nic.mac1609_4 	SNIRLostPackets 	0
scalar LocScenario.node[590].nic.mac1609_4 	RXTXLostPackets 	0
scalar LocScenario.node[590].nic.mac1609_4 	TotalLostPackets 	0
scalar LocScenario.node[590].nic.mac1609_4 	DroppedPacketsInMac 	0
scalar LocScenario.node[590].nic.mac1609_4 	TooLittleTime 	0
scalar LocScenario.node[590].nic.mac1609_4 	TimesIntoBackoff 	2281
scalar LocScenario.node[590].nic.mac1609_4 	SlotsBackoff 	3448
scalar LocScenario.node[590].nic.mac1609_4 	NumInternalContention 	0
scalar LocScenario.node[590].nic.mac1609_4 	totalBusyTime 	1.653177
scalar LocScenario.node[590].veinsmobility 	startTime 	2950.1
scalar LocScenario.node[590].veinsmobility 	totalTime 	228
scalar LocScenario.node[590].veinsmobility 	stopTime 	3178.2
scalar LocScenario.node[590].veinsmobility 	minSpeed 	10.450006007089
scalar LocScenario.node[590].veinsmobility 	maxSpeed 	10.499970988475
scalar LocScenario.node[590].veinsmobility 	totalDistance 	2392.3334238627
scalar LocScenario.node[590].veinsmobility 	totalCO2Emission 	393.4649582574
scalar LocScenario.node[597].appl 	generatedWSMs 	0
scalar LocScenario.node[597].appl 	receivedWSMs 	0
scalar LocScenario.node[597].appl 	generatedBSMs 	2040
scalar LocScenario.node[597].appl 	receivedBSMs 	10359
scalar LocScenario.node[597].appl 	generatedWSAs 	0
scalar LocScenario.node[597].appl 	receivedWSAs 	0
scalar LocScenario.node[597].appl 	rmseSUMGPS 	699352.72972998
scalar LocScenario.node[597].appl 	rmseSUMCP 	1996771.8503925
scalar LocScenario.node[597].appl 	delaySum 	4.8394889302708
scalar LocScenario.node[597].nic.phy80211p 	busyTime 	0.0052810588235295
scalar LocScenario.node[597].nic.mac1609_4 	ReceivedUnicastPackets 	0
scalar LocScenario.node[597].nic.mac1609_4 	ReceivedBroadcasts 	10359
scalar LocScenario.node[597].nic.mac1609_4 	SentPackets 	2040
scalar LocScenario.node[597].nic.mac1609_4 	SNIRLostPackets 	0
scalar LocScenario.node[597].nic.mac1609_4 	RXTXLostPackets 	0
scalar LocScenario.node[597].nic.mac1609_4 	TotalLostPackets 	0
scalar LocScenario.node[597].nic.mac1609_4 	DroppedPacketsInMac 	0
scalar LocScenario.node[597].nic.mac1609_4 	TooLittleTime 	0
scalar LocScenario.node[597].nic.mac1609_4 	TimesIntoBackoff 	2040
scalar LocScenario.node[597].nic.mac1609_4 	SlotsBackoff 	3078
scalar LocScenario.node[597].nic.mac1609_4 	NumInternalContention 	0
scalar LocScenario.node[597].nic.mac1609_4 	totalBusyTime 	1.291536
scalar LocScenario.node[597].veinsmobility 	startTime 	2980.1
scalar LocScenario.node[597].veinsmobility 	totalTime 	203.9
scalar LocScenario.node[597].veinsmobility 	stopTime 	3184.1
scalar LocScenario.node[597].veinsmobility 	minSpeed 	10.450003425032
scalar LocScenario.node[597].veinsmobility 	maxSpeed 	10.499983165774
scalar LocScenario.node[597].veinsmobility 	totalDistance 	2133.8442607869
scalar LocScenario.node[597].veinsmobility 	totalCO2Emission 	351.76934087042
scalar LocScenario.node[592].appl 	generatedWSMs 	0
scalar LocScenario.node[592].appl 	receivedWSMs 	0
scalar LocScenario.node[592].appl 	generatedBSMs 	2281
scalar LocScenario.node[592].appl 	receivedBSMs 	13373
scalar LocScenario.node[592].appl 	generatedWSAs 	0
scalar LocScenario.node[592].appl 	receivedWSAs 	0
scalar LocScenario.node[592].appl 	rmseSUMGPS 	52145.591508813
scalar LocScenario.node[592].appl 	rmseSUMCP 	50217084.227473
scalar LocScenario.node[592].appl 	delaySum 	8.7903808181741
scalar LocScenario.node[592].nic.phy80211p 	busyTime 	0.0060972906619918
scalar LocScenario.node[592].nic.mac1609_4 	ReceivedUnicastPackets 	0
scalar LocScenario.node[592].nic.mac1609_4 	ReceivedBroadcasts 	13373
scalar LocScenario.node[592].nic.mac1609_4 	SentPackets 	2281
scalar LocScenario.node[592].nic.mac1609_4 	SNIRLostPackets 	0
scalar LocScenario.node[592].nic.mac1609_4 	RXTXLostPackets 	0
scalar LocScenario.node[592].nic.mac1609_4 	TotalLostPackets 	0
scalar LocScenario.node[592].nic.mac1609_4 	DroppedPacketsInMac 	0
scalar LocScenario.node[592].nic.mac1609_4 	TooLittleTime 	0
scalar LocScenario.node[592].nic.mac1609_4 	TimesIntoBackoff 	2281
scalar LocScenario.node[592].nic.mac1609_4 	SlotsBackoff 	3417
scalar LocScenario.node[592].nic.mac1609_4 	NumInternalContention 	0
scalar LocScenario.node[592].nic.mac1609_4 	totalBusyTime 	1.630297
scalar LocScenario.node[592].veinsmobility 	startTime 	2960.1
scalar LocScenario.node[592].veinsmobility 	totalTime 	228
scalar LocScenario.node[592].veinsmobility 	stopTime 	3188.2
scalar LocScenario.node[592].veinsmobility 	minSpeed 	10.45001200306
scalar LocScenario.node[592].veinsmobility 	maxSpeed 	10.499989905988
scalar LocScenario.node[592].veinsmobility 	totalDistance 	2392.3523613797
scalar LocScenario.node[592].veinsmobility 	totalCO2Emission 	394.06512962498
scalar LocScenario.node[599].appl 	generatedWSMs 	0
scalar LocScenario.node[599].appl 	receivedWSMs 	0
scalar LocScenario.node[599].appl 	generatedBSMs 	2040
scalar LocScenario.node[599].appl 	receivedBSMs 	8211
scalar LocScenario.node[599].appl 	generatedWSAs 	0
scalar LocScenario.node[599].appl 	receivedWSAs 	0
scalar LocScenario.node[599].appl 	rmseSUMGPS 	853554.01683071
scalar LocScenario.node[599].appl 	rmseSUMCP 	1493284.1449533
scalar LocScenario.node[599].appl 	delaySum 	10.032897662176
scalar LocScenario.node[599].nic.phy80211p 	busyTime 	0.0041859999999998
scalar LocScenario.node[599].nic.mac1609_4 	ReceivedUnicastPackets 	0
scalar LocScenario.node[599].nic.mac1609_4 	ReceivedBroadcasts 	8211
scalar LocScenario.node[599].nic.mac1609_4 	SentPackets 	2040
scalar LocScenario.node[599].nic.mac1609_4 	SNIRLostPackets 	0
scalar LocScenario.node[599].nic.mac1609_4 	RXTXLostPackets 	0
scalar LocScenario.node[599].nic.mac1609_4 	TotalLostPackets 	0
scalar LocScenario.node[599].nic.mac1609_4 	DroppedPacketsInMac 	0
scalar LocScenario.node[599].nic.mac1609_4 	TooLittleTime 	0
scalar LocScenario.node[599].nic.mac1609_4 	TimesIntoBackoff 	2040
scalar LocScenario.node[599].nic.mac1609_4 	SlotsBackoff 	3099
scalar LocScenario.node[599].nic.mac1609_4 	NumInternalContention 	0
scalar LocScenario.node[599].nic.mac1609_4 	totalBusyTime 	1.068144
scalar LocScenario.node[599].veinsmobility 	startTime 	2990.1
scalar LocScenario.node[599].veinsmobility 	totalTime 	203.9
scalar LocScenario.node[599].veinsmobility 	stopTime 	3194.1
scalar LocScenario.node[599].veinsmobility 	minSpeed 	10.450026770087
scalar LocScenario.node[599].veinsmobility 	maxSpeed 	10.499967314349
scalar LocScenario.node[599].veinsmobility 	totalDistance 	2133.7836652325
scalar LocScenario.node[599].veinsmobility 	totalCO2Emission 	351.77947423365
scalar LocScenario.node[594].appl 	generatedWSMs 	0
scalar LocScenario.node[594].appl 	receivedWSMs 	0
scalar LocScenario.node[594].appl 	generatedBSMs 	2281
scalar LocScenario.node[594].appl 	receivedBSMs 	13151
scalar LocScenario.node[594].appl 	generatedWSAs 	0
scalar LocScenario.node[594].appl 	receivedWSAs 	0
scalar LocScenario.node[594].appl 	rmseSUMGPS 	629280.23060709
scalar LocScenario.node[594].appl 	rmseSUMCP 	61165833.969439
scalar LocScenario.node[594].appl 	delaySum 	5.1481736492283
scalar LocScenario.node[594].nic.phy80211p 	busyTime 	0.0059960718982916
scalar LocScenario.node[594].nic.mac1609_4 	ReceivedUnicastPackets 	0
scalar LocScenario.node[594].nic.mac1609_4 	ReceivedBroadcasts 	13151
scalar LocScenario.node[594].nic.mac1609_4 	SentPackets 	2281
scalar LocScenario.node[594].nic.mac1609_4 	SNIRLostPackets 	0
scalar LocScenario.node[594].nic.mac1609_4 	RXTXLostPackets 	0
scalar LocScenario.node[594].nic.mac1609_4 	TotalLostPackets 	0
scalar LocScenario.node[594].nic.mac1609_4 	DroppedPacketsInMac 	0
scalar LocScenario.node[594].nic.mac1609_4 	TooLittleTime 	0
scalar LocScenario.node[594].nic.mac1609_4 	TimesIntoBackoff 	2281
scalar LocScenario.node[594].nic.mac1609_4 	SlotsBackoff 	3340
scalar LocScenario.node[594].nic.mac1609_4 	NumInternalContention 	0
scalar LocScenario.node[594].nic.mac1609_4 	totalBusyTime 	1.607209
scalar LocScenario.node[594].veinsmobility 	startTime 	2970.1
scalar LocScenario.node[594].veinsmobility 	totalTime 	228
scalar LocScenario.node[594].veinsmobility 	stopTime 	3198.2
scalar LocScenario.node[594].veinsmobility 	minSpeed 	10.45000046877
scalar LocScenario.node[594].veinsmobility 	maxSpeed 	10.499982978869
scalar LocScenario.node[594].veinsmobility 	totalDistance 	2388.8011015722
scalar LocScenario.node[594].veinsmobility 	totalCO2Emission 	393.46885232588
scalar LocScenario.node[596].appl 	generatedWSMs 	0
scalar LocScenario.node[596].appl 	receivedWSMs 	0
scalar LocScenario.node[596].appl 	generatedBSMs 	2281
scalar LocScenario.node[596].appl 	receivedBSMs 	10919
scalar LocScenario.node[596].appl 	generatedWSAs 	0
scalar LocScenario.node[596].appl 	receivedWSAs 	0
scalar LocScenario.node[596].appl 	rmseSUMGPS 	24420.436980058
scalar LocScenario.node[596].appl 	rmseSUMCP 	3199394.3987733
scalar LocScenario.node[596].appl 	delaySum 	4.8763244947418
scalar LocScenario.node[596].nic.phy80211p 	busyTime 	0.0049784129767649
scalar LocScenario.node[596].nic.mac1609_4 	ReceivedUnicastPackets 	0
scalar LocScenario.node[596].nic.mac1609_4 	ReceivedBroadcasts 	10919
scalar LocScenario.node[596].nic.mac1609_4 	SentPackets 	2281
scalar LocScenario.node[596].nic.mac1609_4 	SNIRLostPackets 	0
scalar LocScenario.node[596].nic.mac1609_4 	RXTXLostPackets 	0
scalar LocScenario.node[596].nic.mac1609_4 	TotalLostPackets 	0
scalar LocScenario.node[596].nic.mac1609_4 	DroppedPacketsInMac 	0
scalar LocScenario.node[596].nic.mac1609_4 	TooLittleTime 	0
scalar LocScenario.node[596].nic.mac1609_4 	TimesIntoBackoff 	2281
scalar LocScenario.node[596].nic.mac1609_4 	SlotsBackoff 	3455
scalar LocScenario.node[596].nic.mac1609_4 	NumInternalContention 	0
scalar LocScenario.node[596].nic.mac1609_4 	totalBusyTime 	1.375081
scalar LocScenario.node[596].veinsmobility 	startTime 	2980.1
scalar LocScenario.node[596].veinsmobility 	totalTime 	228
scalar LocScenario.node[596].veinsmobility 	stopTime 	3208.2
scalar LocScenario.node[596].veinsmobility 	minSpeed 	10.450013218517
scalar LocScenario.node[596].veinsmobility 	maxSpeed 	10.4999911736
scalar LocScenario.node[596].veinsmobility 	totalDistance 	2392.4229443839
scalar LocScenario.node[596].veinsmobility 	totalCO2Emission 	393.8411296346
scalar LocScenario.node[598].appl 	generatedWSMs 	0
scalar LocScenario.node[598].appl 	receivedWSMs 	0
scalar LocScenario.node[598].appl 	generatedBSMs 	2281
scalar LocScenario.node[598].appl 	receivedBSMs 	8516
scalar LocScenario.node[598].appl 	generatedWSAs 	0
scalar LocScenario.node[598].appl 	receivedWSAs 	0
scalar LocScenario.node[598].appl 	rmseSUMGPS 	817888.34612213
scalar LocScenario.node[598].appl 	rmseSUMCP 	1968871.5646229
scalar LocScenario.node[598].appl 	delaySum 	4.6416080924632
scalar LocScenario.node[598].nic.phy80211p 	busyTime 	0.003882788250767
scalar LocScenario.node[598].nic.mac1609_4 	ReceivedUnicastPackets 	0
scalar LocScenario.node[598].nic.mac1609_4 	ReceivedBroadcasts 	8516
scalar LocScenario.node[598].nic.mac1609_4 	SentPackets 	2281
scalar LocScenario.node[598].nic.mac1609_4 	SNIRLostPackets 	0
scalar LocScenario.node[598].nic.mac1609_4 	RXTXLostPackets 	0
scalar LocScenario.node[598].nic.mac1609_4 	TotalLostPackets 	0
scalar LocScenario.node[598].nic.mac1609_4 	DroppedPacketsInMac 	0
scalar LocScenario.node[598].nic.mac1609_4 	TooLittleTime 	0
scalar LocScenario.node[598].nic.mac1609_4 	TimesIntoBackoff 	2281
scalar LocScenario.node[598].nic.mac1609_4 	SlotsBackoff 	3424
scalar LocScenario.node[598].nic.mac1609_4 	NumInternalContention 	0
scalar LocScenario.node[598].nic.mac1609_4 	totalBusyTime 	1.125169
scalar LocScenario.node[598].veinsmobility 	startTime 	2990.1
scalar LocScenario.node[598].veinsmobility 	totalTime 	228
scalar LocScenario.node[598].veinsmobility 	stopTime 	3218.2
scalar LocScenario.node[598].veinsmobility 	minSpeed 	10.450013049901
scalar LocScenario.node[598].veinsmobility 	maxSpeed 	10.499995404098
scalar LocScenario.node[598].veinsmobility 	totalDistance 	2394.7709077912
scalar LocScenario.node[598].veinsmobility 	totalCO2Emission 	393.41700659725
scalar LocScenario.outagesServer.appl 	generatedWSMs 	0
scalar LocScenario.outagesServer.appl 	receivedWSMs 	0
scalar LocScenario.outagesServer.appl 	generatedBSMs 	0
scalar LocScenario.outagesServer.appl 	receivedBSMs 	0
scalar LocScenario.outagesServer.appl 	generatedWSAs 	0
scalar LocScenario.outagesServer.appl 	receivedWSAs 	0
scalar LocScenario.outagesServer.nic.phy80211p 	busyTime 	0
scalar LocScenario.outagesServer.nic.mac1609_4 	ReceivedUnicastPackets 	0
scalar LocScenario.outagesServer.nic.mac1609_4 	ReceivedBroadcasts 	0
scalar LocScenario.outagesServer.nic.mac1609_4 	SentPackets 	0
scalar LocScenario.outagesServer.nic.mac1609_4 	SNIRLostPackets 	0
scalar LocScenario.outagesServer.nic.mac1609_4 	RXTXLostPackets 	0
scalar LocScenario.outagesServer.nic.mac1609_4 	TotalLostPackets 	0
scalar LocScenario.outagesServer.nic.mac1609_4 	DroppedPacketsInMac 	0
scalar LocScenario.outagesServer.nic.mac1609_4 	TooLittleTime 	0
scalar LocScenario.outagesServer.nic.mac1609_4 	TimesIntoBackoff 	0
scalar LocScenario.outagesServer.nic.mac1609_4 	SlotsBackoff 	0
scalar LocScenario.outagesServer.nic.mac1609_4 	NumInternalContention 	0
scalar LocScenario.outagesServer.nic.mac1609_4 	totalBusyTime 	0
