version 2
run DMAT-91-20171113-12:49:46-4075
attr configname DMAT
attr datetime 20171113-12:49:46
attr experiment DMAT
attr hops 5
attr inifile omnetpp.ini
attr iterationvars "$logVehPeriod=10, $hops=5"
attr iterationvars2 "$logVehPeriod=10, $hops=5, $repetition=1"
attr logVehPeriod 10
attr measurement "$logVehPeriod=10, $hops=5"
attr network com.liborio.cooppos.LocScenario
attr processid 4075
attr repetition 1
attr replication #1
attr resultdir results
attr runnumber 91
attr seedset 1
param **.coreDebug false
param **.debug false
param *.annotations.draw false
param *.connectionManager.drawMaxIntfDist false
param *.connectionManager.maxInterfDist 600m
param *.connectionManager.sendDirect true
param *.manager.autoShutdown true
param *.manager.host "\"localhost\""
param *.manager.launchConfig "xmldoc(\"dmat-\"+string(${logVehPeriod = 15, 10, 5, 3, 1})+\".launchd.xml\")"
param *.manager.port 9999
param *.manager.updateInterval 0.1s
param *.node[*].appl.beaconInterval 0.1s
param *.node[*].appl.dataOnSch false
param *.node[*].appl.headerLength "80 bit"
param *.node[*].appl.hops "${hops = 1, 2, 3, 4, 5}"
param *.node[*].appl.logVehPeriod ${logVehPeriod}
param *.node[*].appl.seedPar ${repetition}
param *.node[*].appl.sendBeacons true
param *.node[*].applType "\"Communication\""
param *.node[*].nic.mac1609_4.bitrate 6Mbps
param *.node[*].nic.mac1609_4.txPower 20mW
param *.node[*].nic.mac1609_4.useServiceChannel false
param *.node[*].nic.phy80211p.analogueModels "xmldoc(\"config.xml\")"
param *.node[*].nic.phy80211p.antenna "xmldoc(\"antenna.xml\", \"/root/Antenna[@id='monopole']\")"
param *.node[*].nic.phy80211p.decider "xmldoc(\"config.xml\")"
param *.node[*].nic.phy80211p.sensitivity -84.39dBm
param *.node[*].nic.phy80211p.thermalNoise -110dBm
param *.node[*].nic.phy80211p.usePropagationDelay true
param *.node[*].nic.phy80211p.useThermalNoise true
param *.node[*].veinsmobility.x 0
param *.node[*].veinsmobility.y 0
param *.node[*].veinsmobility.z 1.895
param *.node[*].veinsmobilityType.debug true
param *.outagesServer.appl.beaconInterval 0.1s
param *.outagesServer.appl.beaconPriority 3
param *.outagesServer.appl.dataOnSch false
param *.outagesServer.appl.dataPriority 2
param *.outagesServer.appl.headerLength "80 bit"
param *.outagesServer.appl.sendBeacons false
param *.outagesServer.applType "\"Outages\""
param *.outagesServer.mobility.x 5000.0
param *.outagesServer.mobility.y 5000.0
param *.outagesServer.mobility.z 3
param *.outagesServer.nic.mac1609_4.bitrate 6Mbps
param *.outagesServer.nic.mac1609_4.txPower 20mW
param *.outagesServer.nic.mac1609_4.useServiceChannel false
param *.outagesServer.nic.phy80211p.analogueModels "xmldoc(\"config.xml\")"
param *.outagesServer.nic.phy80211p.antenna "xmldoc(\"antenna.xml\", \"/root/Antenna[@id='monopole']\")"
param *.outagesServer.nic.phy80211p.decider "xmldoc(\"config.xml\")"
param *.outagesServer.nic.phy80211p.sensitivity -84.39dBm
param *.outagesServer.nic.phy80211p.thermalNoise -110dBm
param *.outagesServer.nic.phy80211p.usePropagationDelay true
param *.outagesServer.nic.phy80211p.useThermalNoise true
param *.playgroundSizeX 20000m
param *.playgroundSizeY 20000m
param *.playgroundSizeZ 50m

scalar . 	hops 	5
scalar . 	logVehPeriod 	10
scalar LocScenario.node[1].appl 	generatedWSMs 	0
scalar LocScenario.node[1].appl 	receivedWSMs 	0
scalar LocScenario.node[1].appl 	generatedBSMs 	2040
scalar LocScenario.node[1].appl 	receivedBSMs 	7997
scalar LocScenario.node[1].appl 	generatedWSAs 	0
scalar LocScenario.node[1].appl 	receivedWSAs 	0
scalar LocScenario.node[1].appl 	rmseSUMGPS 	579955.60231994
scalar LocScenario.node[1].appl 	rmseSUMCP 	530293.44852329
scalar LocScenario.node[1].appl 	delaySum 	0.9273245196919
scalar LocScenario.node[1].nic.phy80211p 	busyTime 	0.0040769019607841
scalar LocScenario.node[1].nic.mac1609_4 	ReceivedUnicastPackets 	0
scalar LocScenario.node[1].nic.mac1609_4 	ReceivedBroadcasts 	7997
scalar LocScenario.node[1].nic.mac1609_4 	SentPackets 	2040
scalar LocScenario.node[1].nic.mac1609_4 	SNIRLostPackets 	0
scalar LocScenario.node[1].nic.mac1609_4 	RXTXLostPackets 	0
scalar LocScenario.node[1].nic.mac1609_4 	TotalLostPackets 	0
scalar LocScenario.node[1].nic.mac1609_4 	DroppedPacketsInMac 	0
scalar LocScenario.node[1].nic.mac1609_4 	TooLittleTime 	0
scalar LocScenario.node[1].nic.mac1609_4 	TimesIntoBackoff 	2040
scalar LocScenario.node[1].nic.mac1609_4 	SlotsBackoff 	3077
scalar LocScenario.node[1].nic.mac1609_4 	NumInternalContention 	0
scalar LocScenario.node[1].nic.mac1609_4 	totalBusyTime 	1.045888
scalar LocScenario.node[1].veinsmobility 	startTime 	0.1
scalar LocScenario.node[1].veinsmobility 	totalTime 	203.9
scalar LocScenario.node[1].veinsmobility 	stopTime 	204.1
scalar LocScenario.node[1].veinsmobility 	minSpeed 	10.45003762102
scalar LocScenario.node[1].veinsmobility 	maxSpeed 	10.499992101546
scalar LocScenario.node[1].veinsmobility 	totalDistance 	2133.749083473
scalar LocScenario.node[1].veinsmobility 	totalCO2Emission 	352.3416335951
scalar LocScenario.node[3].appl 	generatedWSMs 	0
scalar LocScenario.node[3].appl 	receivedWSMs 	0
scalar LocScenario.node[3].appl 	generatedBSMs 	2040
scalar LocScenario.node[3].appl 	receivedBSMs 	10145
scalar LocScenario.node[3].appl 	generatedWSAs 	0
scalar LocScenario.node[3].appl 	receivedWSAs 	0
scalar LocScenario.node[3].appl 	rmseSUMGPS 	984351.71891944
scalar LocScenario.node[3].appl 	rmseSUMCP 	518278.632526
scalar LocScenario.node[3].appl 	delaySum 	1.1672533119056
scalar LocScenario.node[3].nic.phy80211p 	busyTime 	0.0051719607843137
scalar LocScenario.node[3].nic.mac1609_4 	ReceivedUnicastPackets 	0
scalar LocScenario.node[3].nic.mac1609_4 	ReceivedBroadcasts 	10145
scalar LocScenario.node[3].nic.mac1609_4 	SentPackets 	2040
scalar LocScenario.node[3].nic.mac1609_4 	SNIRLostPackets 	0
scalar LocScenario.node[3].nic.mac1609_4 	RXTXLostPackets 	0
scalar LocScenario.node[3].nic.mac1609_4 	TotalLostPackets 	0
scalar LocScenario.node[3].nic.mac1609_4 	DroppedPacketsInMac 	0
scalar LocScenario.node[3].nic.mac1609_4 	TooLittleTime 	0
scalar LocScenario.node[3].nic.mac1609_4 	TimesIntoBackoff 	2040
scalar LocScenario.node[3].nic.mac1609_4 	SlotsBackoff 	3018
scalar LocScenario.node[3].nic.mac1609_4 	NumInternalContention 	0
scalar LocScenario.node[3].nic.mac1609_4 	totalBusyTime 	1.26928
scalar LocScenario.node[3].veinsmobility 	startTime 	10.1
scalar LocScenario.node[3].veinsmobility 	totalTime 	203.9
scalar LocScenario.node[3].veinsmobility 	stopTime 	214.1
scalar LocScenario.node[3].veinsmobility 	minSpeed 	10.450023979775
scalar LocScenario.node[3].veinsmobility 	maxSpeed 	10.499984752038
scalar LocScenario.node[3].veinsmobility 	totalDistance 	2133.8573914187
scalar LocScenario.node[3].veinsmobility 	totalCO2Emission 	351.75999966868
scalar LocScenario.node[5].appl 	generatedWSMs 	0
scalar LocScenario.node[5].appl 	receivedWSMs 	0
scalar LocScenario.node[5].appl 	generatedBSMs 	2040
scalar LocScenario.node[5].appl 	receivedBSMs 	12092
scalar LocScenario.node[5].appl 	generatedWSAs 	0
scalar LocScenario.node[5].appl 	receivedWSAs 	0
scalar LocScenario.node[5].appl 	rmseSUMGPS 	1042218.3840376
scalar LocScenario.node[5].appl 	rmseSUMCP 	7055226.7056607
scalar LocScenario.node[5].appl 	delaySum 	1.3863230576139
scalar LocScenario.node[5].nic.phy80211p 	busyTime 	0.0061681176470598
scalar LocScenario.node[5].nic.mac1609_4 	ReceivedUnicastPackets 	0
scalar LocScenario.node[5].nic.mac1609_4 	ReceivedBroadcasts 	12092
scalar LocScenario.node[5].nic.mac1609_4 	SentPackets 	2040
scalar LocScenario.node[5].nic.mac1609_4 	SNIRLostPackets 	7
scalar LocScenario.node[5].nic.mac1609_4 	RXTXLostPackets 	0
scalar LocScenario.node[5].nic.mac1609_4 	TotalLostPackets 	7
scalar LocScenario.node[5].nic.mac1609_4 	DroppedPacketsInMac 	0
scalar LocScenario.node[5].nic.mac1609_4 	TooLittleTime 	0
scalar LocScenario.node[5].nic.mac1609_4 	TimesIntoBackoff 	2040
scalar LocScenario.node[5].nic.mac1609_4 	SlotsBackoff 	3065
scalar LocScenario.node[5].nic.mac1609_4 	NumInternalContention 	0
scalar LocScenario.node[5].nic.mac1609_4 	totalBusyTime 	1.472496
scalar LocScenario.node[5].veinsmobility 	startTime 	20.1
scalar LocScenario.node[5].veinsmobility 	totalTime 	203.9
scalar LocScenario.node[5].veinsmobility 	stopTime 	224.1
scalar LocScenario.node[5].veinsmobility 	minSpeed 	10.450033563783
scalar LocScenario.node[5].veinsmobility 	maxSpeed 	10.499926366087
scalar LocScenario.node[5].veinsmobility 	totalDistance 	2133.8544413079
scalar LocScenario.node[5].veinsmobility 	totalCO2Emission 	351.77208364301
scalar LocScenario.node[0].appl 	generatedWSMs 	0
scalar LocScenario.node[0].appl 	receivedWSMs 	0
scalar LocScenario.node[0].appl 	generatedBSMs 	2281
scalar LocScenario.node[0].appl 	receivedBSMs 	8721
scalar LocScenario.node[0].appl 	generatedWSAs 	0
scalar LocScenario.node[0].appl 	receivedWSAs 	0
scalar LocScenario.node[0].appl 	rmseSUMGPS 	127314.65292855
scalar LocScenario.node[0].appl 	rmseSUMCP 	430098.89557158
scalar LocScenario.node[0].appl 	delaySum 	0.97953482576627
scalar LocScenario.node[0].nic.phy80211p 	busyTime 	0.0039799035510739
scalar LocScenario.node[0].nic.mac1609_4 	ReceivedUnicastPackets 	0
scalar LocScenario.node[0].nic.mac1609_4 	ReceivedBroadcasts 	8721
scalar LocScenario.node[0].nic.mac1609_4 	SentPackets 	2281
scalar LocScenario.node[0].nic.mac1609_4 	SNIRLostPackets 	8
scalar LocScenario.node[0].nic.mac1609_4 	RXTXLostPackets 	0
scalar LocScenario.node[0].nic.mac1609_4 	TotalLostPackets 	8
scalar LocScenario.node[0].nic.mac1609_4 	DroppedPacketsInMac 	0
scalar LocScenario.node[0].nic.mac1609_4 	TooLittleTime 	0
scalar LocScenario.node[0].nic.mac1609_4 	TimesIntoBackoff 	2281
scalar LocScenario.node[0].nic.mac1609_4 	SlotsBackoff 	3435
scalar LocScenario.node[0].nic.mac1609_4 	NumInternalContention 	0
scalar LocScenario.node[0].nic.mac1609_4 	totalBusyTime 	1.147321
scalar LocScenario.node[0].veinsmobility 	startTime 	0.1
scalar LocScenario.node[0].veinsmobility 	totalTime 	228
scalar LocScenario.node[0].veinsmobility 	stopTime 	228.2
scalar LocScenario.node[0].veinsmobility 	minSpeed 	10.450043542555
scalar LocScenario.node[0].veinsmobility 	maxSpeed 	10.499944697076
scalar LocScenario.node[0].veinsmobility 	totalDistance 	2394.7446226343
scalar LocScenario.node[0].veinsmobility 	totalCO2Emission 	393.70957167716
scalar LocScenario.node[7].appl 	generatedWSMs 	0
scalar LocScenario.node[7].appl 	receivedWSMs 	0
scalar LocScenario.node[7].appl 	generatedBSMs 	2040
scalar LocScenario.node[7].appl 	receivedBSMs 	12268
scalar LocScenario.node[7].appl 	generatedWSAs 	0
scalar LocScenario.node[7].appl 	receivedWSAs 	0
scalar LocScenario.node[7].appl 	rmseSUMGPS 	837466.60036482
scalar LocScenario.node[7].appl 	rmseSUMCP 	3352251.3647938
scalar LocScenario.node[7].appl 	delaySum 	1.4063785821639
scalar LocScenario.node[7].nic.phy80211p 	busyTime 	0.0062710980392168
scalar LocScenario.node[7].nic.mac1609_4 	ReceivedUnicastPackets 	0
scalar LocScenario.node[7].nic.mac1609_4 	ReceivedBroadcasts 	12268
scalar LocScenario.node[7].nic.mac1609_4 	SentPackets 	2040
scalar LocScenario.node[7].nic.mac1609_4 	SNIRLostPackets 	33
scalar LocScenario.node[7].nic.mac1609_4 	RXTXLostPackets 	0
scalar LocScenario.node[7].nic.mac1609_4 	TotalLostPackets 	33
scalar LocScenario.node[7].nic.mac1609_4 	DroppedPacketsInMac 	0
scalar LocScenario.node[7].nic.mac1609_4 	TooLittleTime 	0
scalar LocScenario.node[7].nic.mac1609_4 	TimesIntoBackoff 	2040
scalar LocScenario.node[7].nic.mac1609_4 	SlotsBackoff 	3038
scalar LocScenario.node[7].nic.mac1609_4 	NumInternalContention 	0
scalar LocScenario.node[7].nic.mac1609_4 	totalBusyTime 	1.493504
scalar LocScenario.node[7].veinsmobility 	startTime 	30.1
scalar LocScenario.node[7].veinsmobility 	totalTime 	203.9
scalar LocScenario.node[7].veinsmobility 	stopTime 	234.1
scalar LocScenario.node[7].veinsmobility 	minSpeed 	10.45003607074
scalar LocScenario.node[7].veinsmobility 	maxSpeed 	10.499991779274
scalar LocScenario.node[7].veinsmobility 	totalDistance 	2138.7919182479
scalar LocScenario.node[7].veinsmobility 	totalCO2Emission 	352.12797942069
scalar LocScenario.node[2].appl 	generatedWSMs 	0
scalar LocScenario.node[2].appl 	receivedWSMs 	0
scalar LocScenario.node[2].appl 	generatedBSMs 	2281
scalar LocScenario.node[2].appl 	receivedBSMs 	11102
scalar LocScenario.node[2].appl 	generatedWSAs 	0
scalar LocScenario.node[2].appl 	receivedWSAs 	0
scalar LocScenario.node[2].appl 	rmseSUMGPS 	22505.303809542
scalar LocScenario.node[2].appl 	rmseSUMCP 	335070.94082083
scalar LocScenario.node[2].appl 	delaySum 	1.2544281934548
scalar LocScenario.node[2].nic.phy80211p 	busyTime 	0.005076896098203
scalar LocScenario.node[2].nic.mac1609_4 	ReceivedUnicastPackets 	0
scalar LocScenario.node[2].nic.mac1609_4 	ReceivedBroadcasts 	11102
scalar LocScenario.node[2].nic.mac1609_4 	SentPackets 	2281
scalar LocScenario.node[2].nic.mac1609_4 	SNIRLostPackets 	33
scalar LocScenario.node[2].nic.mac1609_4 	RXTXLostPackets 	0
scalar LocScenario.node[2].nic.mac1609_4 	TotalLostPackets 	33
scalar LocScenario.node[2].nic.mac1609_4 	DroppedPacketsInMac 	0
scalar LocScenario.node[2].nic.mac1609_4 	TooLittleTime 	0
scalar LocScenario.node[2].nic.mac1609_4 	TimesIntoBackoff 	2281
scalar LocScenario.node[2].nic.mac1609_4 	SlotsBackoff 	3508
scalar LocScenario.node[2].nic.mac1609_4 	NumInternalContention 	0
scalar LocScenario.node[2].nic.mac1609_4 	totalBusyTime 	1.397545
scalar LocScenario.node[2].veinsmobility 	startTime 	10.1
scalar LocScenario.node[2].veinsmobility 	totalTime 	228
scalar LocScenario.node[2].veinsmobility 	stopTime 	238.2
scalar LocScenario.node[2].veinsmobility 	minSpeed 	10.450001649593
scalar LocScenario.node[2].veinsmobility 	maxSpeed 	10.49999711581
scalar LocScenario.node[2].veinsmobility 	totalDistance 	2392.2580770419
scalar LocScenario.node[2].veinsmobility 	totalCO2Emission 	392.99697602082
scalar LocScenario.node[9].appl 	generatedWSMs 	0
scalar LocScenario.node[9].appl 	receivedWSMs 	0
scalar LocScenario.node[9].appl 	generatedBSMs 	2040
scalar LocScenario.node[9].appl 	receivedBSMs 	12282
scalar LocScenario.node[9].appl 	generatedWSAs 	0
scalar LocScenario.node[9].appl 	receivedWSAs 	0
scalar LocScenario.node[9].appl 	rmseSUMGPS 	690168.57138191
scalar LocScenario.node[9].appl 	rmseSUMCP 	1781491.4420323
scalar LocScenario.node[9].appl 	delaySum 	1.4450836110941
scalar LocScenario.node[9].nic.phy80211p 	busyTime 	0.0063858039215698
scalar LocScenario.node[9].nic.mac1609_4 	ReceivedUnicastPackets 	0
scalar LocScenario.node[9].nic.mac1609_4 	ReceivedBroadcasts 	12282
scalar LocScenario.node[9].nic.mac1609_4 	SentPackets 	2040
scalar LocScenario.node[9].nic.mac1609_4 	SNIRLostPackets 	244
scalar LocScenario.node[9].nic.mac1609_4 	RXTXLostPackets 	0
scalar LocScenario.node[9].nic.mac1609_4 	TotalLostPackets 	244
scalar LocScenario.node[9].nic.mac1609_4 	DroppedPacketsInMac 	0
scalar LocScenario.node[9].nic.mac1609_4 	TooLittleTime 	0
scalar LocScenario.node[9].nic.mac1609_4 	TimesIntoBackoff 	2040
scalar LocScenario.node[9].nic.mac1609_4 	SlotsBackoff 	3082
scalar LocScenario.node[9].nic.mac1609_4 	NumInternalContention 	0
scalar LocScenario.node[9].nic.mac1609_4 	totalBusyTime 	1.506504
scalar LocScenario.node[9].veinsmobility 	startTime 	40.1
scalar LocScenario.node[9].veinsmobility 	totalTime 	203.9
scalar LocScenario.node[9].veinsmobility 	stopTime 	244.1
scalar LocScenario.node[9].veinsmobility 	minSpeed 	10.450092366838
scalar LocScenario.node[9].veinsmobility 	maxSpeed 	10.499971379724
scalar LocScenario.node[9].veinsmobility 	totalDistance 	2138.7036431616
scalar LocScenario.node[9].veinsmobility 	totalCO2Emission 	351.38745071168
scalar LocScenario.node[4].appl 	generatedWSMs 	0
scalar LocScenario.node[4].appl 	receivedWSMs 	0
scalar LocScenario.node[4].appl 	generatedBSMs 	2281
scalar LocScenario.node[4].appl 	receivedBSMs 	13088
scalar LocScenario.node[4].appl 	generatedWSAs 	0
scalar LocScenario.node[4].appl 	receivedWSAs 	0
scalar LocScenario.node[4].appl 	rmseSUMGPS 	130508.53327373
scalar LocScenario.node[4].appl 	rmseSUMCP 	1093919.5348496
scalar LocScenario.node[4].appl 	delaySum 	1.485963768208
scalar LocScenario.node[4].nic.phy80211p 	busyTime 	0.0060936431389756
scalar LocScenario.node[4].nic.mac1609_4 	ReceivedUnicastPackets 	0
scalar LocScenario.node[4].nic.mac1609_4 	ReceivedBroadcasts 	13088
scalar LocScenario.node[4].nic.mac1609_4 	SentPackets 	2281
scalar LocScenario.node[4].nic.mac1609_4 	SNIRLostPackets 	277
scalar LocScenario.node[4].nic.mac1609_4 	RXTXLostPackets 	0
scalar LocScenario.node[4].nic.mac1609_4 	TotalLostPackets 	277
scalar LocScenario.node[4].nic.mac1609_4 	DroppedPacketsInMac 	0
scalar LocScenario.node[4].nic.mac1609_4 	TooLittleTime 	0
scalar LocScenario.node[4].nic.mac1609_4 	TimesIntoBackoff 	2281
scalar LocScenario.node[4].nic.mac1609_4 	SlotsBackoff 	3399
scalar LocScenario.node[4].nic.mac1609_4 	NumInternalContention 	0
scalar LocScenario.node[4].nic.mac1609_4 	totalBusyTime 	1.619065
scalar LocScenario.node[4].veinsmobility 	startTime 	20.1
scalar LocScenario.node[4].veinsmobility 	totalTime 	228
scalar LocScenario.node[4].veinsmobility 	stopTime 	248.2
scalar LocScenario.node[4].veinsmobility 	minSpeed 	10.45001922698
scalar LocScenario.node[4].veinsmobility 	maxSpeed 	10.499965157988
scalar LocScenario.node[4].veinsmobility 	totalDistance 	2392.2789462308
scalar LocScenario.node[4].veinsmobility 	totalCO2Emission 	394.12959191773
scalar LocScenario.node[11].appl 	generatedWSMs 	0
scalar LocScenario.node[11].appl 	receivedWSMs 	0
scalar LocScenario.node[11].appl 	generatedBSMs 	2040
scalar LocScenario.node[11].appl 	receivedBSMs 	12646
scalar LocScenario.node[11].appl 	generatedWSAs 	0
scalar LocScenario.node[11].appl 	receivedWSAs 	0
scalar LocScenario.node[11].appl 	rmseSUMGPS 	726736.22181157
scalar LocScenario.node[11].appl 	rmseSUMCP 	1714383.4653364
scalar LocScenario.node[11].appl 	delaySum 	1.4863309558155
scalar LocScenario.node[11].nic.phy80211p 	busyTime 	0.0064979607843151
scalar LocScenario.node[11].nic.mac1609_4 	ReceivedUnicastPackets 	0
scalar LocScenario.node[11].nic.mac1609_4 	ReceivedBroadcasts 	12646
scalar LocScenario.node[11].nic.mac1609_4 	SentPackets 	2040
scalar LocScenario.node[11].nic.mac1609_4 	SNIRLostPackets 	100
scalar LocScenario.node[11].nic.mac1609_4 	RXTXLostPackets 	0
scalar LocScenario.node[11].nic.mac1609_4 	TotalLostPackets 	100
scalar LocScenario.node[11].nic.mac1609_4 	DroppedPacketsInMac 	0
scalar LocScenario.node[11].nic.mac1609_4 	TooLittleTime 	0
scalar LocScenario.node[11].nic.mac1609_4 	TimesIntoBackoff 	2040
scalar LocScenario.node[11].nic.mac1609_4 	SlotsBackoff 	3094
scalar LocScenario.node[11].nic.mac1609_4 	NumInternalContention 	0
scalar LocScenario.node[11].nic.mac1609_4 	totalBusyTime 	1.534584
scalar LocScenario.node[11].veinsmobility 	startTime 	50.1
scalar LocScenario.node[11].veinsmobility 	totalTime 	203.9
scalar LocScenario.node[11].veinsmobility 	stopTime 	254.1
scalar LocScenario.node[11].veinsmobility 	minSpeed 	10.450015266088
scalar LocScenario.node[11].veinsmobility 	maxSpeed 	10.499975911074
scalar LocScenario.node[11].veinsmobility 	totalDistance 	2138.7723001025
scalar LocScenario.node[11].veinsmobility 	totalCO2Emission 	352.30046486636
scalar LocScenario.node[6].appl 	generatedWSMs 	0
scalar LocScenario.node[6].appl 	receivedWSMs 	0
scalar LocScenario.node[6].appl 	generatedBSMs 	2281
scalar LocScenario.node[6].appl 	receivedBSMs 	13508
scalar LocScenario.node[6].appl 	generatedWSAs 	0
scalar LocScenario.node[6].appl 	receivedWSAs 	0
scalar LocScenario.node[6].appl 	rmseSUMGPS 	756085.71058104
scalar LocScenario.node[6].appl 	rmseSUMCP 	894330.80783064
scalar LocScenario.node[6].appl 	delaySum 	1.5411052717805
scalar LocScenario.node[6].nic.phy80211p 	busyTime 	0.0061953178430529
scalar LocScenario.node[6].nic.mac1609_4 	ReceivedUnicastPackets 	0
scalar LocScenario.node[6].nic.mac1609_4 	ReceivedBroadcasts 	13508
scalar LocScenario.node[6].nic.mac1609_4 	SentPackets 	2281
scalar LocScenario.node[6].nic.mac1609_4 	SNIRLostPackets 	80
scalar LocScenario.node[6].nic.mac1609_4 	RXTXLostPackets 	0
scalar LocScenario.node[6].nic.mac1609_4 	TotalLostPackets 	80
scalar LocScenario.node[6].nic.mac1609_4 	DroppedPacketsInMac 	0
scalar LocScenario.node[6].nic.mac1609_4 	TooLittleTime 	0
scalar LocScenario.node[6].nic.mac1609_4 	TimesIntoBackoff 	2281
scalar LocScenario.node[6].nic.mac1609_4 	SlotsBackoff 	3455
scalar LocScenario.node[6].nic.mac1609_4 	NumInternalContention 	0
scalar LocScenario.node[6].nic.mac1609_4 	totalBusyTime 	1.647457
scalar LocScenario.node[6].veinsmobility 	startTime 	30.1
scalar LocScenario.node[6].veinsmobility 	totalTime 	228
scalar LocScenario.node[6].veinsmobility 	stopTime 	258.2
scalar LocScenario.node[6].veinsmobility 	minSpeed 	10.450014644954
scalar LocScenario.node[6].veinsmobility 	maxSpeed 	10.4999863968
scalar LocScenario.node[6].veinsmobility 	totalDistance 	2388.7157082582
scalar LocScenario.node[6].veinsmobility 	totalCO2Emission 	392.78987094706
scalar LocScenario.node[13].appl 	generatedWSMs 	0
scalar LocScenario.node[13].appl 	receivedWSMs 	0
scalar LocScenario.node[13].appl 	generatedBSMs 	2040
scalar LocScenario.node[13].appl 	receivedBSMs 	12964
scalar LocScenario.node[13].appl 	generatedWSAs 	0
scalar LocScenario.node[13].appl 	receivedWSAs 	0
scalar LocScenario.node[13].appl 	rmseSUMGPS 	719105.55730055
scalar LocScenario.node[13].appl 	rmseSUMCP 	1971982.9940929
scalar LocScenario.node[13].appl 	delaySum 	1.4848138262268
scalar LocScenario.node[13].nic.phy80211p 	busyTime 	0.0066090980392171
scalar LocScenario.node[13].nic.mac1609_4 	ReceivedUnicastPackets 	0
scalar LocScenario.node[13].nic.mac1609_4 	ReceivedBroadcasts 	12964
scalar LocScenario.node[13].nic.mac1609_4 	SentPackets 	2040
scalar LocScenario.node[13].nic.mac1609_4 	SNIRLostPackets 	0
scalar LocScenario.node[13].nic.mac1609_4 	RXTXLostPackets 	0
scalar LocScenario.node[13].nic.mac1609_4 	TotalLostPackets 	0
scalar LocScenario.node[13].nic.mac1609_4 	DroppedPacketsInMac 	0
scalar LocScenario.node[13].nic.mac1609_4 	TooLittleTime 	0
scalar LocScenario.node[13].nic.mac1609_4 	TimesIntoBackoff 	2248
scalar LocScenario.node[13].nic.mac1609_4 	SlotsBackoff 	3482
scalar LocScenario.node[13].nic.mac1609_4 	NumInternalContention 	0
scalar LocScenario.node[13].nic.mac1609_4 	totalBusyTime 	1.562456
scalar LocScenario.node[13].veinsmobility 	startTime 	60.1
scalar LocScenario.node[13].veinsmobility 	totalTime 	203.9
scalar LocScenario.node[13].veinsmobility 	stopTime 	264.1
scalar LocScenario.node[13].veinsmobility 	minSpeed 	10.45007517006
scalar LocScenario.node[13].veinsmobility 	maxSpeed 	10.499999057257
scalar LocScenario.node[13].veinsmobility 	totalDistance 	2138.8105148711
scalar LocScenario.node[13].veinsmobility 	totalCO2Emission 	351.51773781668
scalar LocScenario.node[8].appl 	generatedWSMs 	0
scalar LocScenario.node[8].appl 	receivedWSMs 	0
scalar LocScenario.node[8].appl 	generatedBSMs 	2281
scalar LocScenario.node[8].appl 	receivedBSMs 	13811
scalar LocScenario.node[8].appl 	generatedWSAs 	0
scalar LocScenario.node[8].appl 	receivedWSAs 	0
scalar LocScenario.node[8].appl 	rmseSUMGPS 	92073.015831303
scalar LocScenario.node[8].appl 	rmseSUMCP 	806423.36942771
scalar LocScenario.node[8].appl 	delaySum 	2.5196862748883e+180
scalar LocScenario.node[8].nic.phy80211p 	busyTime 	0.0062969925471301
scalar LocScenario.node[8].nic.mac1609_4 	ReceivedUnicastPackets 	0
scalar LocScenario.node[8].nic.mac1609_4 	ReceivedBroadcasts 	13811
scalar LocScenario.node[8].nic.mac1609_4 	SentPackets 	2281
scalar LocScenario.node[8].nic.mac1609_4 	SNIRLostPackets 	0
scalar LocScenario.node[8].nic.mac1609_4 	RXTXLostPackets 	0
scalar LocScenario.node[8].nic.mac1609_4 	TotalLostPackets 	0
scalar LocScenario.node[8].nic.mac1609_4 	DroppedPacketsInMac 	0
scalar LocScenario.node[8].nic.mac1609_4 	TooLittleTime 	0
scalar LocScenario.node[8].nic.mac1609_4 	TimesIntoBackoff 	2281
scalar LocScenario.node[8].nic.mac1609_4 	SlotsBackoff 	3341
scalar LocScenario.node[8].nic.mac1609_4 	NumInternalContention 	0
scalar LocScenario.node[8].nic.mac1609_4 	totalBusyTime 	1.675849
scalar LocScenario.node[8].veinsmobility 	startTime 	40.1
scalar LocScenario.node[8].veinsmobility 	totalTime 	228
scalar LocScenario.node[8].veinsmobility 	stopTime 	268.2
scalar LocScenario.node[8].veinsmobility 	minSpeed 	10.450043721695
scalar LocScenario.node[8].veinsmobility 	maxSpeed 	10.499997883278
scalar LocScenario.node[8].veinsmobility 	totalDistance 	2392.295495281
scalar LocScenario.node[8].veinsmobility 	totalCO2Emission 	393.7026366331
scalar LocScenario.node[15].appl 	generatedWSMs 	0
scalar LocScenario.node[15].appl 	receivedWSMs 	0
scalar LocScenario.node[15].appl 	generatedBSMs 	2040
scalar LocScenario.node[15].appl 	receivedBSMs 	13107
scalar LocScenario.node[15].appl 	generatedWSAs 	0
scalar LocScenario.node[15].appl 	receivedWSAs 	0
scalar LocScenario.node[15].appl 	rmseSUMGPS 	1179592.3013719
scalar LocScenario.node[15].appl 	rmseSUMCP 	835226.40290182
scalar LocScenario.node[15].appl 	delaySum 	1.536671400666
scalar LocScenario.node[15].nic.phy80211p 	busyTime 	0.0067329803921584
scalar LocScenario.node[15].nic.mac1609_4 	ReceivedUnicastPackets 	0
scalar LocScenario.node[15].nic.mac1609_4 	ReceivedBroadcasts 	13107
scalar LocScenario.node[15].nic.mac1609_4 	SentPackets 	2040
scalar LocScenario.node[15].nic.mac1609_4 	SNIRLostPackets 	100
scalar LocScenario.node[15].nic.mac1609_4 	RXTXLostPackets 	0
scalar LocScenario.node[15].nic.mac1609_4 	TotalLostPackets 	100
scalar LocScenario.node[15].nic.mac1609_4 	DroppedPacketsInMac 	0
scalar LocScenario.node[15].nic.mac1609_4 	TooLittleTime 	0
scalar LocScenario.node[15].nic.mac1609_4 	TimesIntoBackoff 	2040
scalar LocScenario.node[15].nic.mac1609_4 	SlotsBackoff 	3076
scalar LocScenario.node[15].nic.mac1609_4 	NumInternalContention 	0
scalar LocScenario.node[15].nic.mac1609_4 	totalBusyTime 	1.582528
scalar LocScenario.node[15].veinsmobility 	startTime 	70.1
scalar LocScenario.node[15].veinsmobility 	totalTime 	203.9
scalar LocScenario.node[15].veinsmobility 	stopTime 	274.1
scalar LocScenario.node[15].veinsmobility 	minSpeed 	10.450000437023
scalar LocScenario.node[15].veinsmobility 	maxSpeed 	10.499982078129
scalar LocScenario.node[15].veinsmobility 	totalDistance 	2133.887556081
scalar LocScenario.node[15].veinsmobility 	totalCO2Emission 	351.50717731344
scalar LocScenario.node[10].appl 	generatedWSMs 	0
scalar LocScenario.node[10].appl 	receivedWSMs 	0
scalar LocScenario.node[10].appl 	generatedBSMs 	2281
scalar LocScenario.node[10].appl 	receivedBSMs 	13944
scalar LocScenario.node[10].appl 	generatedWSAs 	0
scalar LocScenario.node[10].appl 	receivedWSAs 	0
scalar LocScenario.node[10].appl 	rmseSUMGPS 	46479.513865305
scalar LocScenario.node[10].appl 	rmseSUMCP 	853615.3542513
scalar LocScenario.node[10].appl 	delaySum 	5.8066097352624e+14
scalar LocScenario.node[10].nic.phy80211p 	busyTime 	0.0063963875493222
scalar LocScenario.node[10].nic.mac1609_4 	ReceivedUnicastPackets 	0
scalar LocScenario.node[10].nic.mac1609_4 	ReceivedBroadcasts 	13944
scalar LocScenario.node[10].nic.mac1609_4 	SentPackets 	2281
scalar LocScenario.node[10].nic.mac1609_4 	SNIRLostPackets 	85
scalar LocScenario.node[10].nic.mac1609_4 	RXTXLostPackets 	0
scalar LocScenario.node[10].nic.mac1609_4 	TotalLostPackets 	85
scalar LocScenario.node[10].nic.mac1609_4 	DroppedPacketsInMac 	0
scalar LocScenario.node[10].nic.mac1609_4 	TooLittleTime 	0
scalar LocScenario.node[10].nic.mac1609_4 	TimesIntoBackoff 	2281
scalar LocScenario.node[10].nic.mac1609_4 	SlotsBackoff 	3494
scalar LocScenario.node[10].nic.mac1609_4 	NumInternalContention 	0
scalar LocScenario.node[10].nic.mac1609_4 	totalBusyTime 	1.693321
scalar LocScenario.node[10].veinsmobility 	startTime 	50.1
scalar LocScenario.node[10].veinsmobility 	totalTime 	228
scalar LocScenario.node[10].veinsmobility 	stopTime 	278.2
scalar LocScenario.node[10].veinsmobility 	minSpeed 	10.450024082477
scalar LocScenario.node[10].veinsmobility 	maxSpeed 	10.499999328679
scalar LocScenario.node[10].veinsmobility 	totalDistance 	2392.3690705525
scalar LocScenario.node[10].veinsmobility 	totalCO2Emission 	393.77288187048
scalar LocScenario.node[17].appl 	generatedWSMs 	0
scalar LocScenario.node[17].appl 	receivedWSMs 	0
scalar LocScenario.node[17].appl 	generatedBSMs 	2040
scalar LocScenario.node[17].appl 	receivedBSMs 	13180
scalar LocScenario.node[17].appl 	generatedWSAs 	0
scalar LocScenario.node[17].appl 	receivedWSAs 	0
scalar LocScenario.node[17].appl 	rmseSUMGPS 	660167.1623909
scalar LocScenario.node[17].appl 	rmseSUMCP 	712925.53149311
scalar LocScenario.node[17].appl 	delaySum 	1.5447052756463
scalar LocScenario.node[17].nic.phy80211p 	busyTime 	0.006836470588237
scalar LocScenario.node[17].nic.mac1609_4 	ReceivedUnicastPackets 	0
scalar LocScenario.node[17].nic.mac1609_4 	ReceivedBroadcasts 	13180
scalar LocScenario.node[17].nic.mac1609_4 	SentPackets 	2040
scalar LocScenario.node[17].nic.mac1609_4 	SNIRLostPackets 	230
scalar LocScenario.node[17].nic.mac1609_4 	RXTXLostPackets 	0
scalar LocScenario.node[17].nic.mac1609_4 	TotalLostPackets 	230
scalar LocScenario.node[17].nic.mac1609_4 	DroppedPacketsInMac 	0
scalar LocScenario.node[17].nic.mac1609_4 	TooLittleTime 	0
scalar LocScenario.node[17].nic.mac1609_4 	TimesIntoBackoff 	2040
scalar LocScenario.node[17].nic.mac1609_4 	SlotsBackoff 	3061
scalar LocScenario.node[17].nic.mac1609_4 	NumInternalContention 	0
scalar LocScenario.node[17].nic.mac1609_4 	totalBusyTime 	1.59844
scalar LocScenario.node[17].veinsmobility 	startTime 	80.1
scalar LocScenario.node[17].veinsmobility 	totalTime 	203.9
scalar LocScenario.node[17].veinsmobility 	stopTime 	284.1
scalar LocScenario.node[17].veinsmobility 	minSpeed 	10.450022611127
scalar LocScenario.node[17].veinsmobility 	maxSpeed 	10.499965629959
scalar LocScenario.node[17].veinsmobility 	totalDistance 	2138.6847660018
scalar LocScenario.node[17].veinsmobility 	totalCO2Emission 	352.09873125542
scalar LocScenario.node[12].appl 	generatedWSMs 	0
scalar LocScenario.node[12].appl 	receivedWSMs 	0
scalar LocScenario.node[12].appl 	generatedBSMs 	2281
scalar LocScenario.node[12].appl 	receivedBSMs 	13977
scalar LocScenario.node[12].appl 	generatedWSAs 	0
scalar LocScenario.node[12].appl 	receivedWSAs 	0
scalar LocScenario.node[12].appl 	rmseSUMGPS 	36217.66464299
scalar LocScenario.node[12].appl 	rmseSUMCP 	828948.02369059
scalar LocScenario.node[12].appl 	delaySum 	1.5849193539155
scalar LocScenario.node[12].nic.phy80211p 	busyTime 	0.0064966944322684
scalar LocScenario.node[12].nic.mac1609_4 	ReceivedUnicastPackets 	0
scalar LocScenario.node[12].nic.mac1609_4 	ReceivedBroadcasts 	13977
scalar LocScenario.node[12].nic.mac1609_4 	SentPackets 	2281
scalar LocScenario.node[12].nic.mac1609_4 	SNIRLostPackets 	272
scalar LocScenario.node[12].nic.mac1609_4 	RXTXLostPackets 	0
scalar LocScenario.node[12].nic.mac1609_4 	TotalLostPackets 	272
scalar LocScenario.node[12].nic.mac1609_4 	DroppedPacketsInMac 	0
scalar LocScenario.node[12].nic.mac1609_4 	TooLittleTime 	0
scalar LocScenario.node[12].nic.mac1609_4 	TimesIntoBackoff 	2281
scalar LocScenario.node[12].nic.mac1609_4 	SlotsBackoff 	3413
scalar LocScenario.node[12].nic.mac1609_4 	NumInternalContention 	0
scalar LocScenario.node[12].nic.mac1609_4 	totalBusyTime 	1.711025820403
scalar LocScenario.node[12].veinsmobility 	startTime 	60.1
scalar LocScenario.node[12].veinsmobility 	totalTime 	228
scalar LocScenario.node[12].veinsmobility 	stopTime 	288.2
scalar LocScenario.node[12].veinsmobility 	minSpeed 	10.450006441108
scalar LocScenario.node[12].veinsmobility 	maxSpeed 	10.49997007784
scalar LocScenario.node[12].veinsmobility 	totalDistance 	2394.8017379898
scalar LocScenario.node[12].veinsmobility 	totalCO2Emission 	394.19791593443
scalar LocScenario.node[19].appl 	generatedWSMs 	0
scalar LocScenario.node[19].appl 	receivedWSMs 	0
scalar LocScenario.node[19].appl 	generatedBSMs 	2040
scalar LocScenario.node[19].appl 	receivedBSMs 	13515
scalar LocScenario.node[19].appl 	generatedWSAs 	0
scalar LocScenario.node[19].appl 	receivedWSAs 	0
scalar LocScenario.node[19].appl 	rmseSUMGPS 	1615144.9830513
scalar LocScenario.node[19].appl 	rmseSUMCP 	623853.67283052
scalar LocScenario.node[19].appl 	delaySum 	1.5521445042352
scalar LocScenario.node[19].nic.phy80211p 	busyTime 	0.0069593333333351
scalar LocScenario.node[19].nic.mac1609_4 	ReceivedUnicastPackets 	0
scalar LocScenario.node[19].nic.mac1609_4 	ReceivedBroadcasts 	13515
scalar LocScenario.node[19].nic.mac1609_4 	SentPackets 	2040
scalar LocScenario.node[19].nic.mac1609_4 	SNIRLostPackets 	136
scalar LocScenario.node[19].nic.mac1609_4 	RXTXLostPackets 	0
scalar LocScenario.node[19].nic.mac1609_4 	TotalLostPackets 	136
scalar LocScenario.node[19].nic.mac1609_4 	DroppedPacketsInMac 	0
scalar LocScenario.node[19].nic.mac1609_4 	TooLittleTime 	0
scalar LocScenario.node[19].nic.mac1609_4 	TimesIntoBackoff 	2040
scalar LocScenario.node[19].nic.mac1609_4 	SlotsBackoff 	3051
scalar LocScenario.node[19].nic.mac1609_4 	NumInternalContention 	0
scalar LocScenario.node[19].nic.mac1609_4 	totalBusyTime 	1.628392
scalar LocScenario.node[19].veinsmobility 	startTime 	90.1
scalar LocScenario.node[19].veinsmobility 	totalTime 	203.9
scalar LocScenario.node[19].veinsmobility 	stopTime 	294.1
scalar LocScenario.node[19].veinsmobility 	minSpeed 	10.450026586407
scalar LocScenario.node[19].veinsmobility 	maxSpeed 	10.499985783396
scalar LocScenario.node[19].veinsmobility 	totalDistance 	2133.8603533412
scalar LocScenario.node[19].veinsmobility 	totalCO2Emission 	352.14789239616
scalar LocScenario.node[14].appl 	generatedWSMs 	0
scalar LocScenario.node[14].appl 	receivedWSMs 	0
scalar LocScenario.node[14].appl 	generatedBSMs 	2281
scalar LocScenario.node[14].appl 	receivedBSMs 	14435
scalar LocScenario.node[14].appl 	generatedWSAs 	0
scalar LocScenario.node[14].appl 	receivedWSAs 	0
scalar LocScenario.node[14].appl 	rmseSUMGPS 	56824.743939547
scalar LocScenario.node[14].appl 	rmseSUMCP 	789213.39953623
scalar LocScenario.node[14].appl 	delaySum 	1.6279635697926
scalar LocScenario.node[14].nic.phy80211p 	busyTime 	0.0065947216133295
scalar LocScenario.node[14].nic.mac1609_4 	ReceivedUnicastPackets 	0
scalar LocScenario.node[14].nic.mac1609_4 	ReceivedBroadcasts 	14435
scalar LocScenario.node[14].nic.mac1609_4 	SentPackets 	2281
scalar LocScenario.node[14].nic.mac1609_4 	SNIRLostPackets 	29
scalar LocScenario.node[14].nic.mac1609_4 	RXTXLostPackets 	0
scalar LocScenario.node[14].nic.mac1609_4 	TotalLostPackets 	29
scalar LocScenario.node[14].nic.mac1609_4 	DroppedPacketsInMac 	0
scalar LocScenario.node[14].nic.mac1609_4 	TooLittleTime 	0
scalar LocScenario.node[14].nic.mac1609_4 	TimesIntoBackoff 	2281
scalar LocScenario.node[14].nic.mac1609_4 	SlotsBackoff 	3334
scalar LocScenario.node[14].nic.mac1609_4 	NumInternalContention 	0
scalar LocScenario.node[14].nic.mac1609_4 	totalBusyTime 	1.743761
scalar LocScenario.node[14].veinsmobility 	startTime 	70.1
scalar LocScenario.node[14].veinsmobility 	totalTime 	228
scalar LocScenario.node[14].veinsmobility 	stopTime 	298.2
scalar LocScenario.node[14].veinsmobility 	minSpeed 	10.450009467022
scalar LocScenario.node[14].veinsmobility 	maxSpeed 	10.499997716781
scalar LocScenario.node[14].veinsmobility 	totalDistance 	2392.3468588671
scalar LocScenario.node[14].veinsmobility 	totalCO2Emission 	393.70461100184
scalar LocScenario.node[21].appl 	generatedWSMs 	0
scalar LocScenario.node[21].appl 	receivedWSMs 	0
scalar LocScenario.node[21].appl 	generatedBSMs 	2040
scalar LocScenario.node[21].appl 	receivedBSMs 	13786
scalar LocScenario.node[21].appl 	generatedWSAs 	0
scalar LocScenario.node[21].appl 	receivedWSAs 	0
scalar LocScenario.node[21].appl 	rmseSUMGPS 	888275.39807794
scalar LocScenario.node[21].appl 	rmseSUMCP 	663548.52384754
scalar LocScenario.node[21].appl 	delaySum 	1.5893962188752
scalar LocScenario.node[21].nic.phy80211p 	busyTime 	0.0070709803921588
scalar LocScenario.node[21].nic.mac1609_4 	ReceivedUnicastPackets 	0
scalar LocScenario.node[21].nic.mac1609_4 	ReceivedBroadcasts 	13786
scalar LocScenario.node[21].nic.mac1609_4 	SentPackets 	2040
scalar LocScenario.node[21].nic.mac1609_4 	SNIRLostPackets 	84
scalar LocScenario.node[21].nic.mac1609_4 	RXTXLostPackets 	0
scalar LocScenario.node[21].nic.mac1609_4 	TotalLostPackets 	84
scalar LocScenario.node[21].nic.mac1609_4 	DroppedPacketsInMac 	0
scalar LocScenario.node[21].nic.mac1609_4 	TooLittleTime 	0
scalar LocScenario.node[21].nic.mac1609_4 	TimesIntoBackoff 	2040
scalar LocScenario.node[21].nic.mac1609_4 	SlotsBackoff 	3097
scalar LocScenario.node[21].nic.mac1609_4 	NumInternalContention 	0
scalar LocScenario.node[21].nic.mac1609_4 	totalBusyTime 	1.651792
scalar LocScenario.node[21].veinsmobility 	startTime 	100.1
scalar LocScenario.node[21].veinsmobility 	totalTime 	203.9
scalar LocScenario.node[21].veinsmobility 	stopTime 	304.1
scalar LocScenario.node[21].veinsmobility 	minSpeed 	10.450040131097
scalar LocScenario.node[21].veinsmobility 	maxSpeed 	10.499994177883
scalar LocScenario.node[21].veinsmobility 	totalDistance 	2133.7872353972
scalar LocScenario.node[21].veinsmobility 	totalCO2Emission 	351.6006516869
scalar LocScenario.node[16].appl 	generatedWSMs 	0
scalar LocScenario.node[16].appl 	receivedWSMs 	0
scalar LocScenario.node[16].appl 	generatedBSMs 	2281
scalar LocScenario.node[16].appl 	receivedBSMs 	14665
scalar LocScenario.node[16].appl 	generatedWSAs 	0
scalar LocScenario.node[16].appl 	receivedWSAs 	0
scalar LocScenario.node[16].appl 	rmseSUMGPS 	56757.895597168
scalar LocScenario.node[16].appl 	rmseSUMCP 	987206.68946222
scalar LocScenario.node[16].appl 	delaySum 	1.6454629752585
scalar LocScenario.node[16].nic.phy80211p 	busyTime 	0.0066900131521283
scalar LocScenario.node[16].nic.mac1609_4 	ReceivedUnicastPackets 	0
scalar LocScenario.node[16].nic.mac1609_4 	ReceivedBroadcasts 	14665
scalar LocScenario.node[16].nic.mac1609_4 	SentPackets 	2281
scalar LocScenario.node[16].nic.mac1609_4 	SNIRLostPackets 	8
scalar LocScenario.node[16].nic.mac1609_4 	RXTXLostPackets 	0
scalar LocScenario.node[16].nic.mac1609_4 	TotalLostPackets 	8
scalar LocScenario.node[16].nic.mac1609_4 	DroppedPacketsInMac 	0
scalar LocScenario.node[16].nic.mac1609_4 	TooLittleTime 	0
scalar LocScenario.node[16].nic.mac1609_4 	TimesIntoBackoff 	2281
scalar LocScenario.node[16].nic.mac1609_4 	SlotsBackoff 	3433
scalar LocScenario.node[16].nic.mac1609_4 	NumInternalContention 	0
scalar LocScenario.node[16].nic.mac1609_4 	totalBusyTime 	1.765497
scalar LocScenario.node[16].veinsmobility 	startTime 	80.1
scalar LocScenario.node[16].veinsmobility 	totalTime 	228
scalar LocScenario.node[16].veinsmobility 	stopTime 	308.2
scalar LocScenario.node[16].veinsmobility 	minSpeed 	10.450038159417
scalar LocScenario.node[16].veinsmobility 	maxSpeed 	10.499989248102
scalar LocScenario.node[16].veinsmobility 	totalDistance 	2394.6601148483
scalar LocScenario.node[16].veinsmobility 	totalCO2Emission 	393.27818226493
scalar LocScenario.node[23].appl 	generatedWSMs 	0
scalar LocScenario.node[23].appl 	receivedWSMs 	0
scalar LocScenario.node[23].appl 	generatedBSMs 	2040
scalar LocScenario.node[23].appl 	receivedBSMs 	14085
scalar LocScenario.node[23].appl 	generatedWSAs 	0
scalar LocScenario.node[23].appl 	receivedWSAs 	0
scalar LocScenario.node[23].appl 	rmseSUMGPS 	950448.65962863
scalar LocScenario.node[23].appl 	rmseSUMCP 	654647.47177837
scalar LocScenario.node[23].appl 	delaySum 	1.6279193061444
scalar LocScenario.node[23].nic.phy80211p 	busyTime 	0.0071805882352961
scalar LocScenario.node[23].nic.mac1609_4 	ReceivedUnicastPackets 	0
scalar LocScenario.node[23].nic.mac1609_4 	ReceivedBroadcasts 	14085
scalar LocScenario.node[23].nic.mac1609_4 	SentPackets 	2040
scalar LocScenario.node[23].nic.mac1609_4 	SNIRLostPackets 	0
scalar LocScenario.node[23].nic.mac1609_4 	RXTXLostPackets 	0
scalar LocScenario.node[23].nic.mac1609_4 	TotalLostPackets 	0
scalar LocScenario.node[23].nic.mac1609_4 	DroppedPacketsInMac 	0
scalar LocScenario.node[23].nic.mac1609_4 	TooLittleTime 	0
scalar LocScenario.node[23].nic.mac1609_4 	TimesIntoBackoff 	2040
scalar LocScenario.node[23].nic.mac1609_4 	SlotsBackoff 	3027
scalar LocScenario.node[23].nic.mac1609_4 	NumInternalContention 	0
scalar LocScenario.node[23].nic.mac1609_4 	totalBusyTime 	1.67904
scalar LocScenario.node[23].veinsmobility 	startTime 	110.1
scalar LocScenario.node[23].veinsmobility 	totalTime 	203.9
scalar LocScenario.node[23].veinsmobility 	stopTime 	314.1
scalar LocScenario.node[23].veinsmobility 	minSpeed 	10.450031403976
scalar LocScenario.node[23].veinsmobility 	maxSpeed 	10.499996349297
scalar LocScenario.node[23].veinsmobility 	totalDistance 	2138.9303098933
scalar LocScenario.node[23].veinsmobility 	totalCO2Emission 	352.22669767982
scalar LocScenario.node[18].appl 	generatedWSMs 	0
scalar LocScenario.node[18].appl 	receivedWSMs 	0
scalar LocScenario.node[18].appl 	generatedBSMs 	2281
scalar LocScenario.node[18].appl 	receivedBSMs 	14884
scalar LocScenario.node[18].appl 	generatedWSAs 	0
scalar LocScenario.node[18].appl 	receivedWSAs 	0
scalar LocScenario.node[18].appl 	rmseSUMGPS 	699572.37270018
scalar LocScenario.node[18].appl 	rmseSUMCP 	836333.33452167
scalar LocScenario.node[18].appl 	delaySum 	1.666298019213
scalar LocScenario.node[18].nic.phy80211p 	busyTime 	0.0067862165716813
scalar LocScenario.node[18].nic.mac1609_4 	ReceivedUnicastPackets 	0
scalar LocScenario.node[18].nic.mac1609_4 	ReceivedBroadcasts 	14884
scalar LocScenario.node[18].nic.mac1609_4 	SentPackets 	2281
scalar LocScenario.node[18].nic.mac1609_4 	SNIRLostPackets 	0
scalar LocScenario.node[18].nic.mac1609_4 	RXTXLostPackets 	0
scalar LocScenario.node[18].nic.mac1609_4 	TotalLostPackets 	0
scalar LocScenario.node[18].nic.mac1609_4 	DroppedPacketsInMac 	0
scalar LocScenario.node[18].nic.mac1609_4 	TooLittleTime 	0
scalar LocScenario.node[18].nic.mac1609_4 	TimesIntoBackoff 	2281
scalar LocScenario.node[18].nic.mac1609_4 	SlotsBackoff 	3388
scalar LocScenario.node[18].nic.mac1609_4 	NumInternalContention 	0
scalar LocScenario.node[18].nic.mac1609_4 	totalBusyTime 	1.787441
scalar LocScenario.node[18].veinsmobility 	startTime 	90.1
scalar LocScenario.node[18].veinsmobility 	totalTime 	228
scalar LocScenario.node[18].veinsmobility 	stopTime 	318.2
scalar LocScenario.node[18].veinsmobility 	minSpeed 	10.450033625762
scalar LocScenario.node[18].veinsmobility 	maxSpeed 	10.499943049671
scalar LocScenario.node[18].veinsmobility 	totalDistance 	2388.8765327146
scalar LocScenario.node[18].veinsmobility 	totalCO2Emission 	393.51604241114
scalar LocScenario.node[25].appl 	generatedWSMs 	0
scalar LocScenario.node[25].appl 	receivedWSMs 	0
scalar LocScenario.node[25].appl 	generatedBSMs 	2040
scalar LocScenario.node[25].appl 	receivedBSMs 	14238
scalar LocScenario.node[25].appl 	generatedWSAs 	0
scalar LocScenario.node[25].appl 	receivedWSAs 	0
scalar LocScenario.node[25].appl 	rmseSUMGPS 	612540.39068167
scalar LocScenario.node[25].appl 	rmseSUMCP 	667536.46478744
scalar LocScenario.node[25].appl 	delaySum 	1.6417034309806
scalar LocScenario.node[25].nic.phy80211p 	busyTime 	0.0073039607843159
scalar LocScenario.node[25].nic.mac1609_4 	ReceivedUnicastPackets 	0
scalar LocScenario.node[25].nic.mac1609_4 	ReceivedBroadcasts 	14238
scalar LocScenario.node[25].nic.mac1609_4 	SentPackets 	2040
scalar LocScenario.node[25].nic.mac1609_4 	SNIRLostPackets 	89
scalar LocScenario.node[25].nic.mac1609_4 	RXTXLostPackets 	0
scalar LocScenario.node[25].nic.mac1609_4 	TotalLostPackets 	89
scalar LocScenario.node[25].nic.mac1609_4 	DroppedPacketsInMac 	0
scalar LocScenario.node[25].nic.mac1609_4 	TooLittleTime 	0
scalar LocScenario.node[25].nic.mac1609_4 	TimesIntoBackoff 	2040
scalar LocScenario.node[25].nic.mac1609_4 	SlotsBackoff 	3008
scalar LocScenario.node[25].nic.mac1609_4 	NumInternalContention 	0
scalar LocScenario.node[25].nic.mac1609_4 	totalBusyTime 	1.698904
scalar LocScenario.node[25].veinsmobility 	startTime 	120.1
scalar LocScenario.node[25].veinsmobility 	totalTime 	203.9
scalar LocScenario.node[25].veinsmobility 	stopTime 	324.1
scalar LocScenario.node[25].veinsmobility 	minSpeed 	10.450024345727
scalar LocScenario.node[25].veinsmobility 	maxSpeed 	10.499952772027
scalar LocScenario.node[25].veinsmobility 	totalDistance 	2133.7879949337
scalar LocScenario.node[25].veinsmobility 	totalCO2Emission 	351.95308681684
scalar LocScenario.node[20].appl 	generatedWSMs 	0
scalar LocScenario.node[20].appl 	receivedWSMs 	0
scalar LocScenario.node[20].appl 	generatedBSMs 	2281
scalar LocScenario.node[20].appl 	receivedBSMs 	15095
scalar LocScenario.node[20].appl 	generatedWSAs 	0
scalar LocScenario.node[20].appl 	receivedWSAs 	0
scalar LocScenario.node[20].appl 	rmseSUMGPS 	45667.073009393
scalar LocScenario.node[20].appl 	rmseSUMCP 	734179.65828224
scalar LocScenario.node[20].appl 	delaySum 	1.6895631271928
scalar LocScenario.node[20].nic.phy80211p 	busyTime 	0.0068824199912342
scalar LocScenario.node[20].nic.mac1609_4 	ReceivedUnicastPackets 	0
scalar LocScenario.node[20].nic.mac1609_4 	ReceivedBroadcasts 	15095
scalar LocScenario.node[20].nic.mac1609_4 	SentPackets 	2281
scalar LocScenario.node[20].nic.mac1609_4 	SNIRLostPackets 	0
scalar LocScenario.node[20].nic.mac1609_4 	RXTXLostPackets 	0
scalar LocScenario.node[20].nic.mac1609_4 	TotalLostPackets 	0
scalar LocScenario.node[20].nic.mac1609_4 	DroppedPacketsInMac 	0
scalar LocScenario.node[20].nic.mac1609_4 	TooLittleTime 	0
scalar LocScenario.node[20].nic.mac1609_4 	TimesIntoBackoff 	2281
scalar LocScenario.node[20].nic.mac1609_4 	SlotsBackoff 	3411
scalar LocScenario.node[20].nic.mac1609_4 	NumInternalContention 	0
scalar LocScenario.node[20].nic.mac1609_4 	totalBusyTime 	1.809385
scalar LocScenario.node[20].veinsmobility 	startTime 	100.1
scalar LocScenario.node[20].veinsmobility 	totalTime 	228
scalar LocScenario.node[20].veinsmobility 	stopTime 	328.2
scalar LocScenario.node[20].veinsmobility 	minSpeed 	10.450033111847
scalar LocScenario.node[20].veinsmobility 	maxSpeed 	10.499986483483
scalar LocScenario.node[20].veinsmobility 	totalDistance 	2392.3260681611
scalar LocScenario.node[20].veinsmobility 	totalCO2Emission 	393.58273882492
scalar LocScenario.node[27].appl 	generatedWSMs 	0
scalar LocScenario.node[27].appl 	receivedWSMs 	0
scalar LocScenario.node[27].appl 	generatedBSMs 	2040
scalar LocScenario.node[27].appl 	receivedBSMs 	14384
scalar LocScenario.node[27].appl 	generatedWSAs 	0
scalar LocScenario.node[27].appl 	receivedWSAs 	0
scalar LocScenario.node[27].appl 	rmseSUMGPS 	769098.46124518
scalar LocScenario.node[27].appl 	rmseSUMCP 	654656.36285477
scalar LocScenario.node[27].appl 	delaySum 	1.6541393923383
scalar LocScenario.node[27].nic.phy80211p 	busyTime 	0.0074064313725513
scalar LocScenario.node[27].nic.mac1609_4 	ReceivedUnicastPackets 	0
scalar LocScenario.node[27].nic.mac1609_4 	ReceivedBroadcasts 	14384
scalar LocScenario.node[27].nic.mac1609_4 	SentPackets 	2040
scalar LocScenario.node[27].nic.mac1609_4 	SNIRLostPackets 	144
scalar LocScenario.node[27].nic.mac1609_4 	RXTXLostPackets 	0
scalar LocScenario.node[27].nic.mac1609_4 	TotalLostPackets 	144
scalar LocScenario.node[27].nic.mac1609_4 	DroppedPacketsInMac 	0
scalar LocScenario.node[27].nic.mac1609_4 	TooLittleTime 	0
scalar LocScenario.node[27].nic.mac1609_4 	TimesIntoBackoff 	2040
scalar LocScenario.node[27].nic.mac1609_4 	SlotsBackoff 	3050
scalar LocScenario.node[27].nic.mac1609_4 	NumInternalContention 	0
scalar LocScenario.node[27].nic.mac1609_4 	totalBusyTime 	1.718183427252
scalar LocScenario.node[27].veinsmobility 	startTime 	130.1
scalar LocScenario.node[27].veinsmobility 	totalTime 	203.9
scalar LocScenario.node[27].veinsmobility 	stopTime 	334.1
scalar LocScenario.node[27].veinsmobility 	minSpeed 	10.450006777013
scalar LocScenario.node[27].veinsmobility 	maxSpeed 	10.499980339839
scalar LocScenario.node[27].veinsmobility 	totalDistance 	2133.8779217143
scalar LocScenario.node[27].veinsmobility 	totalCO2Emission 	352.28434500915
scalar LocScenario.node[22].appl 	generatedWSMs 	0
scalar LocScenario.node[22].appl 	receivedWSMs 	0
scalar LocScenario.node[22].appl 	generatedBSMs 	2281
scalar LocScenario.node[22].appl 	receivedBSMs 	15311
scalar LocScenario.node[22].appl 	generatedWSAs 	0
scalar LocScenario.node[22].appl 	receivedWSAs 	0
scalar LocScenario.node[22].appl 	rmseSUMGPS 	84705.375238565
scalar LocScenario.node[22].appl 	rmseSUMCP 	873057.38235315
scalar LocScenario.node[22].appl 	delaySum 	1.7139519808081
scalar LocScenario.node[22].nic.phy80211p 	busyTime 	0.0069818149934263
scalar LocScenario.node[22].nic.mac1609_4 	ReceivedUnicastPackets 	0
scalar LocScenario.node[22].nic.mac1609_4 	ReceivedBroadcasts 	15311
scalar LocScenario.node[22].nic.mac1609_4 	SentPackets 	2281
scalar LocScenario.node[22].nic.mac1609_4 	SNIRLostPackets 	2
scalar LocScenario.node[22].nic.mac1609_4 	RXTXLostPackets 	0
scalar LocScenario.node[22].nic.mac1609_4 	TotalLostPackets 	2
scalar LocScenario.node[22].nic.mac1609_4 	DroppedPacketsInMac 	0
scalar LocScenario.node[22].nic.mac1609_4 	TooLittleTime 	0
scalar LocScenario.node[22].nic.mac1609_4 	TimesIntoBackoff 	2281
scalar LocScenario.node[22].nic.mac1609_4 	SlotsBackoff 	3465
scalar LocScenario.node[22].nic.mac1609_4 	NumInternalContention 	0
scalar LocScenario.node[22].nic.mac1609_4 	totalBusyTime 	1.832057
scalar LocScenario.node[22].veinsmobility 	startTime 	110.1
scalar LocScenario.node[22].veinsmobility 	totalTime 	228
scalar LocScenario.node[22].veinsmobility 	stopTime 	338.2
scalar LocScenario.node[22].veinsmobility 	minSpeed 	10.450016743143
scalar LocScenario.node[22].veinsmobility 	maxSpeed 	10.499977767142
scalar LocScenario.node[22].veinsmobility 	totalDistance 	2394.6152207279
scalar LocScenario.node[22].veinsmobility 	totalCO2Emission 	393.15369950919
scalar LocScenario.node[29].appl 	generatedWSMs 	0
scalar LocScenario.node[29].appl 	receivedWSMs 	0
scalar LocScenario.node[29].appl 	generatedBSMs 	2040
scalar LocScenario.node[29].appl 	receivedBSMs 	14749
scalar LocScenario.node[29].appl 	generatedWSAs 	0
scalar LocScenario.node[29].appl 	receivedWSAs 	0
scalar LocScenario.node[29].appl 	rmseSUMGPS 	740092.537848
scalar LocScenario.node[29].appl 	rmseSUMCP 	649007.74710647
scalar LocScenario.node[29].appl 	delaySum 	1.6910650852408
scalar LocScenario.node[29].nic.phy80211p 	busyTime 	0.007519098039218
scalar LocScenario.node[29].nic.mac1609_4 	ReceivedUnicastPackets 	0
scalar LocScenario.node[29].nic.mac1609_4 	ReceivedBroadcasts 	14749
scalar LocScenario.node[29].nic.mac1609_4 	SentPackets 	2040
scalar LocScenario.node[29].nic.mac1609_4 	SNIRLostPackets 	0
scalar LocScenario.node[29].nic.mac1609_4 	RXTXLostPackets 	0
scalar LocScenario.node[29].nic.mac1609_4 	TotalLostPackets 	0
scalar LocScenario.node[29].nic.mac1609_4 	DroppedPacketsInMac 	0
scalar LocScenario.node[29].nic.mac1609_4 	TooLittleTime 	0
scalar LocScenario.node[29].nic.mac1609_4 	TimesIntoBackoff 	2040
scalar LocScenario.node[29].nic.mac1609_4 	SlotsBackoff 	3093
scalar LocScenario.node[29].nic.mac1609_4 	NumInternalContention 	0
scalar LocScenario.node[29].nic.mac1609_4 	totalBusyTime 	1.748096
scalar LocScenario.node[29].veinsmobility 	startTime 	140.1
scalar LocScenario.node[29].veinsmobility 	totalTime 	203.9
scalar LocScenario.node[29].veinsmobility 	stopTime 	344.1
scalar LocScenario.node[29].veinsmobility 	minSpeed 	10.450008737959
scalar LocScenario.node[29].veinsmobility 	maxSpeed 	10.49994313143
scalar LocScenario.node[29].veinsmobility 	totalDistance 	2133.8580392303
scalar LocScenario.node[29].veinsmobility 	totalCO2Emission 	352.08149687643
scalar LocScenario.node[24].appl 	generatedWSMs 	0
scalar LocScenario.node[24].appl 	receivedWSMs 	0
scalar LocScenario.node[24].appl 	generatedBSMs 	2281
scalar LocScenario.node[24].appl 	receivedBSMs 	15533
scalar LocScenario.node[24].appl 	generatedWSAs 	0
scalar LocScenario.node[24].appl 	receivedWSAs 	0
scalar LocScenario.node[24].appl 	rmseSUMGPS 	689688.49091918
scalar LocScenario.node[24].appl 	rmseSUMCP 	702516.16315735
scalar LocScenario.node[24].appl 	delaySum 	1.7395088470454
scalar LocScenario.node[24].nic.phy80211p 	busyTime 	0.0070834896975036
scalar LocScenario.node[24].nic.mac1609_4 	ReceivedUnicastPackets 	0
scalar LocScenario.node[24].nic.mac1609_4 	ReceivedBroadcasts 	15533
scalar LocScenario.node[24].nic.mac1609_4 	SentPackets 	2281
scalar LocScenario.node[24].nic.mac1609_4 	SNIRLostPackets 	3
scalar LocScenario.node[24].nic.mac1609_4 	RXTXLostPackets 	0
scalar LocScenario.node[24].nic.mac1609_4 	TotalLostPackets 	3
scalar LocScenario.node[24].nic.mac1609_4 	DroppedPacketsInMac 	0
scalar LocScenario.node[24].nic.mac1609_4 	TooLittleTime 	0
scalar LocScenario.node[24].nic.mac1609_4 	TimesIntoBackoff 	2281
scalar LocScenario.node[24].nic.mac1609_4 	SlotsBackoff 	3461
scalar LocScenario.node[24].nic.mac1609_4 	NumInternalContention 	0
scalar LocScenario.node[24].nic.mac1609_4 	totalBusyTime 	1.855249
scalar LocScenario.node[24].veinsmobility 	startTime 	120.1
scalar LocScenario.node[24].veinsmobility 	totalTime 	228
scalar LocScenario.node[24].veinsmobility 	stopTime 	348.2
scalar LocScenario.node[24].veinsmobility 	minSpeed 	10.450041124201
scalar LocScenario.node[24].veinsmobility 	maxSpeed 	10.499998911284
scalar LocScenario.node[24].veinsmobility 	totalDistance 	2388.7047295425
scalar LocScenario.node[24].veinsmobility 	totalCO2Emission 	393.49912270288
scalar LocScenario.node[31].appl 	generatedWSMs 	0
scalar LocScenario.node[31].appl 	receivedWSMs 	0
scalar LocScenario.node[31].appl 	generatedBSMs 	2040
scalar LocScenario.node[31].appl 	receivedBSMs 	14949
scalar LocScenario.node[31].appl 	generatedWSAs 	0
scalar LocScenario.node[31].appl 	receivedWSAs 	0
scalar LocScenario.node[31].appl 	rmseSUMGPS 	672448.71413058
scalar LocScenario.node[31].appl 	rmseSUMCP 	650571.8513146
scalar LocScenario.node[31].appl 	delaySum 	1.7089593730641
scalar LocScenario.node[31].nic.phy80211p 	busyTime 	0.0076210588235319
scalar LocScenario.node[31].nic.mac1609_4 	ReceivedUnicastPackets 	0
scalar LocScenario.node[31].nic.mac1609_4 	ReceivedBroadcasts 	14949
scalar LocScenario.node[31].nic.mac1609_4 	SentPackets 	2040
scalar LocScenario.node[31].nic.mac1609_4 	SNIRLostPackets 	0
scalar LocScenario.node[31].nic.mac1609_4 	RXTXLostPackets 	0
scalar LocScenario.node[31].nic.mac1609_4 	TotalLostPackets 	0
scalar LocScenario.node[31].nic.mac1609_4 	DroppedPacketsInMac 	0
scalar LocScenario.node[31].nic.mac1609_4 	TooLittleTime 	0
scalar LocScenario.node[31].nic.mac1609_4 	TimesIntoBackoff 	2040
scalar LocScenario.node[31].nic.mac1609_4 	SlotsBackoff 	3097
scalar LocScenario.node[31].nic.mac1609_4 	NumInternalContention 	0
scalar LocScenario.node[31].nic.mac1609_4 	totalBusyTime 	1.768896
scalar LocScenario.node[31].veinsmobility 	startTime 	150.1
scalar LocScenario.node[31].veinsmobility 	totalTime 	203.9
scalar LocScenario.node[31].veinsmobility 	stopTime 	354.1
scalar LocScenario.node[31].veinsmobility 	minSpeed 	10.450001162325
scalar LocScenario.node[31].veinsmobility 	maxSpeed 	10.499978969758
scalar LocScenario.node[31].veinsmobility 	totalDistance 	2133.8811135453
scalar LocScenario.node[31].veinsmobility 	totalCO2Emission 	352.58721068115
scalar LocScenario.node[26].appl 	generatedWSMs 	0
scalar LocScenario.node[26].appl 	receivedWSMs 	0
scalar LocScenario.node[26].appl 	generatedBSMs 	2281
scalar LocScenario.node[26].appl 	receivedBSMs 	15759
scalar LocScenario.node[26].appl 	generatedWSAs 	0
scalar LocScenario.node[26].appl 	receivedWSAs 	0
scalar LocScenario.node[26].appl 	rmseSUMGPS 	67840.430168415
scalar LocScenario.node[26].appl 	rmseSUMCP 	646426.79261862
scalar LocScenario.node[26].appl 	delaySum 	1.7642074763157
scalar LocScenario.node[26].nic.phy80211p 	busyTime 	0.0071856203419578
scalar LocScenario.node[26].nic.mac1609_4 	ReceivedUnicastPackets 	0
scalar LocScenario.node[26].nic.mac1609_4 	ReceivedBroadcasts 	15759
scalar LocScenario.node[26].nic.mac1609_4 	SentPackets 	2281
scalar LocScenario.node[26].nic.mac1609_4 	SNIRLostPackets 	1
scalar LocScenario.node[26].nic.mac1609_4 	RXTXLostPackets 	0
scalar LocScenario.node[26].nic.mac1609_4 	TotalLostPackets 	1
scalar LocScenario.node[26].nic.mac1609_4 	DroppedPacketsInMac 	0
scalar LocScenario.node[26].nic.mac1609_4 	TooLittleTime 	0
scalar LocScenario.node[26].nic.mac1609_4 	TimesIntoBackoff 	2281
scalar LocScenario.node[26].nic.mac1609_4 	SlotsBackoff 	3413
scalar LocScenario.node[26].nic.mac1609_4 	NumInternalContention 	0
scalar LocScenario.node[26].nic.mac1609_4 	totalBusyTime 	1.878545
scalar LocScenario.node[26].veinsmobility 	startTime 	130.1
scalar LocScenario.node[26].veinsmobility 	totalTime 	228
scalar LocScenario.node[26].veinsmobility 	stopTime 	358.2
scalar LocScenario.node[26].veinsmobility 	minSpeed 	10.450047721528
scalar LocScenario.node[26].veinsmobility 	maxSpeed 	10.499997165846
scalar LocScenario.node[26].veinsmobility 	totalDistance 	2392.3027100733
scalar LocScenario.node[26].veinsmobility 	totalCO2Emission 	393.77852320367
scalar LocScenario.node[33].appl 	generatedWSMs 	0
scalar LocScenario.node[33].appl 	receivedWSMs 	0
scalar LocScenario.node[33].appl 	generatedBSMs 	2040
scalar LocScenario.node[33].appl 	receivedBSMs 	15145
scalar LocScenario.node[33].appl 	generatedWSAs 	0
scalar LocScenario.node[33].appl 	receivedWSAs 	0
scalar LocScenario.node[33].appl 	rmseSUMGPS 	788562.57745569
scalar LocScenario.node[33].appl 	rmseSUMCP 	637808.4803956
scalar LocScenario.node[33].appl 	delaySum 	1.7285016794989
scalar LocScenario.node[33].nic.phy80211p 	busyTime 	0.0077209803921594
scalar LocScenario.node[33].nic.mac1609_4 	ReceivedUnicastPackets 	0
scalar LocScenario.node[33].nic.mac1609_4 	ReceivedBroadcasts 	15145
scalar LocScenario.node[33].nic.mac1609_4 	SentPackets 	2040
scalar LocScenario.node[33].nic.mac1609_4 	SNIRLostPackets 	0
scalar LocScenario.node[33].nic.mac1609_4 	RXTXLostPackets 	0
scalar LocScenario.node[33].nic.mac1609_4 	TotalLostPackets 	0
scalar LocScenario.node[33].nic.mac1609_4 	DroppedPacketsInMac 	0
scalar LocScenario.node[33].nic.mac1609_4 	TooLittleTime 	0
scalar LocScenario.node[33].nic.mac1609_4 	TimesIntoBackoff 	2040
scalar LocScenario.node[33].nic.mac1609_4 	SlotsBackoff 	3023
scalar LocScenario.node[33].nic.mac1609_4 	NumInternalContention 	0
scalar LocScenario.node[33].nic.mac1609_4 	totalBusyTime 	1.78928
scalar LocScenario.node[33].veinsmobility 	startTime 	160.1
scalar LocScenario.node[33].veinsmobility 	totalTime 	203.9
scalar LocScenario.node[33].veinsmobility 	stopTime 	364.1
scalar LocScenario.node[33].veinsmobility 	minSpeed 	10.450010310311
scalar LocScenario.node[33].veinsmobility 	maxSpeed 	10.499990515271
scalar LocScenario.node[33].veinsmobility 	totalDistance 	2133.8048754196
scalar LocScenario.node[33].veinsmobility 	totalCO2Emission 	351.53878101093
scalar LocScenario.node[28].appl 	generatedWSMs 	0
scalar LocScenario.node[28].appl 	receivedWSMs 	0
scalar LocScenario.node[28].appl 	generatedBSMs 	2281
scalar LocScenario.node[28].appl 	receivedBSMs 	15982
scalar LocScenario.node[28].appl 	generatedWSAs 	0
scalar LocScenario.node[28].appl 	receivedWSAs 	0
scalar LocScenario.node[28].appl 	rmseSUMGPS 	54371.209784042
scalar LocScenario.node[28].appl 	rmseSUMCP 	623078.16082642
scalar LocScenario.node[28].appl 	delaySum 	1.7892303823856
scalar LocScenario.node[28].nic.phy80211p 	busyTime 	0.0072877509864121
scalar LocScenario.node[28].nic.mac1609_4 	ReceivedUnicastPackets 	0
scalar LocScenario.node[28].nic.mac1609_4 	ReceivedBroadcasts 	15982
scalar LocScenario.node[28].nic.mac1609_4 	SentPackets 	2281
scalar LocScenario.node[28].nic.mac1609_4 	SNIRLostPackets 	2
scalar LocScenario.node[28].nic.mac1609_4 	RXTXLostPackets 	0
scalar LocScenario.node[28].nic.mac1609_4 	TotalLostPackets 	2
scalar LocScenario.node[28].nic.mac1609_4 	DroppedPacketsInMac 	0
scalar LocScenario.node[28].nic.mac1609_4 	TooLittleTime 	0
scalar LocScenario.node[28].nic.mac1609_4 	TimesIntoBackoff 	2281
scalar LocScenario.node[28].nic.mac1609_4 	SlotsBackoff 	3440
scalar LocScenario.node[28].nic.mac1609_4 	NumInternalContention 	0
scalar LocScenario.node[28].nic.mac1609_4 	totalBusyTime 	1.901841
scalar LocScenario.node[28].veinsmobility 	startTime 	140.1
scalar LocScenario.node[28].veinsmobility 	totalTime 	228
scalar LocScenario.node[28].veinsmobility 	stopTime 	368.2
scalar LocScenario.node[28].veinsmobility 	minSpeed 	10.450003476231
scalar LocScenario.node[28].veinsmobility 	maxSpeed 	10.499988924025
scalar LocScenario.node[28].veinsmobility 	totalDistance 	2392.1939326294
scalar LocScenario.node[28].veinsmobility 	totalCO2Emission 	393.26665225304
scalar LocScenario.node[35].appl 	generatedWSMs 	0
scalar LocScenario.node[35].appl 	receivedWSMs 	0
scalar LocScenario.node[35].appl 	generatedBSMs 	2040
scalar LocScenario.node[35].appl 	receivedBSMs 	15357
scalar LocScenario.node[35].appl 	generatedWSAs 	0
scalar LocScenario.node[35].appl 	receivedWSAs 	0
scalar LocScenario.node[35].appl 	rmseSUMGPS 	756406.69259093
scalar LocScenario.node[35].appl 	rmseSUMCP 	621130.81986047
scalar LocScenario.node[35].appl 	delaySum 	1.7527342534997
scalar LocScenario.node[35].nic.phy80211p 	busyTime 	0.0078290588235321
scalar LocScenario.node[35].nic.mac1609_4 	ReceivedUnicastPackets 	0
scalar LocScenario.node[35].nic.mac1609_4 	ReceivedBroadcasts 	15357
scalar LocScenario.node[35].nic.mac1609_4 	SentPackets 	2040
scalar LocScenario.node[35].nic.mac1609_4 	SNIRLostPackets 	0
scalar LocScenario.node[35].nic.mac1609_4 	RXTXLostPackets 	0
scalar LocScenario.node[35].nic.mac1609_4 	TotalLostPackets 	0
scalar LocScenario.node[35].nic.mac1609_4 	DroppedPacketsInMac 	0
scalar LocScenario.node[35].nic.mac1609_4 	TooLittleTime 	0
scalar LocScenario.node[35].nic.mac1609_4 	TimesIntoBackoff 	2040
scalar LocScenario.node[35].nic.mac1609_4 	SlotsBackoff 	3042
scalar LocScenario.node[35].nic.mac1609_4 	NumInternalContention 	0
scalar LocScenario.node[35].nic.mac1609_4 	totalBusyTime 	1.811328
scalar LocScenario.node[35].veinsmobility 	startTime 	170.1
scalar LocScenario.node[35].veinsmobility 	totalTime 	203.9
scalar LocScenario.node[35].veinsmobility 	stopTime 	374.1
scalar LocScenario.node[35].veinsmobility 	minSpeed 	10.450046437874
scalar LocScenario.node[35].veinsmobility 	maxSpeed 	10.499994532904
scalar LocScenario.node[35].veinsmobility 	totalDistance 	2133.7587496145
scalar LocScenario.node[35].veinsmobility 	totalCO2Emission 	352.07458514239
scalar LocScenario.node[30].appl 	generatedWSMs 	0
scalar LocScenario.node[30].appl 	receivedWSMs 	0
scalar LocScenario.node[30].appl 	generatedBSMs 	2281
scalar LocScenario.node[30].appl 	receivedBSMs 	16197
scalar LocScenario.node[30].appl 	generatedWSAs 	0
scalar LocScenario.node[30].appl 	receivedWSAs 	0
scalar LocScenario.node[30].appl 	rmseSUMGPS 	792008.82368112
scalar LocScenario.node[30].appl 	rmseSUMCP 	676395.98819576
scalar LocScenario.node[30].appl 	delaySum 	1.1611575147026e+200
scalar LocScenario.node[30].nic.phy80211p 	busyTime 	0.0073853222270961
scalar LocScenario.node[30].nic.mac1609_4 	ReceivedUnicastPackets 	0
scalar LocScenario.node[30].nic.mac1609_4 	ReceivedBroadcasts 	16197
scalar LocScenario.node[30].nic.mac1609_4 	SentPackets 	2281
scalar LocScenario.node[30].nic.mac1609_4 	SNIRLostPackets 	1
scalar LocScenario.node[30].nic.mac1609_4 	RXTXLostPackets 	0
scalar LocScenario.node[30].nic.mac1609_4 	TotalLostPackets 	1
scalar LocScenario.node[30].nic.mac1609_4 	DroppedPacketsInMac 	0
scalar LocScenario.node[30].nic.mac1609_4 	TooLittleTime 	0
scalar LocScenario.node[30].nic.mac1609_4 	TimesIntoBackoff 	2281
scalar LocScenario.node[30].nic.mac1609_4 	SlotsBackoff 	3454
scalar LocScenario.node[30].nic.mac1609_4 	NumInternalContention 	0
scalar LocScenario.node[30].nic.mac1609_4 	totalBusyTime 	1.924097
scalar LocScenario.node[30].veinsmobility 	startTime 	150.1
scalar LocScenario.node[30].veinsmobility 	totalTime 	228
scalar LocScenario.node[30].veinsmobility 	stopTime 	378.2
scalar LocScenario.node[30].veinsmobility 	minSpeed 	10.450013659324
scalar LocScenario.node[30].veinsmobility 	maxSpeed 	10.499955424527
scalar LocScenario.node[30].veinsmobility 	totalDistance 	2388.7580977371
scalar LocScenario.node[30].veinsmobility 	totalCO2Emission 	393.82562077133
scalar LocScenario.node[37].appl 	generatedWSMs 	0
scalar LocScenario.node[37].appl 	receivedWSMs 	0
scalar LocScenario.node[37].appl 	generatedBSMs 	2040
scalar LocScenario.node[37].appl 	receivedBSMs 	15542
scalar LocScenario.node[37].appl 	generatedWSAs 	0
scalar LocScenario.node[37].appl 	receivedWSAs 	0
scalar LocScenario.node[37].appl 	rmseSUMGPS 	752802.20596174
scalar LocScenario.node[37].appl 	rmseSUMCP 	622454.96326649
scalar LocScenario.node[37].appl 	delaySum 	1.7727586481587
scalar LocScenario.node[37].nic.phy80211p 	busyTime 	0.0079233725490224
scalar LocScenario.node[37].nic.mac1609_4 	ReceivedUnicastPackets 	0
scalar LocScenario.node[37].nic.mac1609_4 	ReceivedBroadcasts 	15542
scalar LocScenario.node[37].nic.mac1609_4 	SentPackets 	2040
scalar LocScenario.node[37].nic.mac1609_4 	SNIRLostPackets 	0
scalar LocScenario.node[37].nic.mac1609_4 	RXTXLostPackets 	0
scalar LocScenario.node[37].nic.mac1609_4 	TotalLostPackets 	0
scalar LocScenario.node[37].nic.mac1609_4 	DroppedPacketsInMac 	0
scalar LocScenario.node[37].nic.mac1609_4 	TooLittleTime 	0
scalar LocScenario.node[37].nic.mac1609_4 	TimesIntoBackoff 	2040
scalar LocScenario.node[37].nic.mac1609_4 	SlotsBackoff 	3003
scalar LocScenario.node[37].nic.mac1609_4 	NumInternalContention 	0
scalar LocScenario.node[37].nic.mac1609_4 	totalBusyTime 	1.830568
scalar LocScenario.node[37].veinsmobility 	startTime 	180.1
scalar LocScenario.node[37].veinsmobility 	totalTime 	203.9
scalar LocScenario.node[37].veinsmobility 	stopTime 	384.1
scalar LocScenario.node[37].veinsmobility 	minSpeed 	10.45001302103
scalar LocScenario.node[37].veinsmobility 	maxSpeed 	10.49999102382
scalar LocScenario.node[37].veinsmobility 	totalDistance 	2133.7957649557
scalar LocScenario.node[37].veinsmobility 	totalCO2Emission 	351.80503916416
scalar LocScenario.node[32].appl 	generatedWSMs 	0
scalar LocScenario.node[32].appl 	receivedWSMs 	0
scalar LocScenario.node[32].appl 	generatedBSMs 	2281
scalar LocScenario.node[32].appl 	receivedBSMs 	16413
scalar LocScenario.node[32].appl 	generatedWSAs 	0
scalar LocScenario.node[32].appl 	receivedWSAs 	0
scalar LocScenario.node[32].appl 	rmseSUMGPS 	646407.69831921
scalar LocScenario.node[32].appl 	rmseSUMCP 	657377.45218783
scalar LocScenario.node[32].appl 	delaySum 	4.5330361814458e+26
scalar LocScenario.node[32].nic.phy80211p 	busyTime 	0.0074851731696653
scalar LocScenario.node[32].nic.mac1609_4 	ReceivedUnicastPackets 	0
scalar LocScenario.node[32].nic.mac1609_4 	ReceivedBroadcasts 	16413
scalar LocScenario.node[32].nic.mac1609_4 	SentPackets 	2281
scalar LocScenario.node[32].nic.mac1609_4 	SNIRLostPackets 	4
scalar LocScenario.node[32].nic.mac1609_4 	RXTXLostPackets 	0
scalar LocScenario.node[32].nic.mac1609_4 	TotalLostPackets 	4
scalar LocScenario.node[32].nic.mac1609_4 	DroppedPacketsInMac 	0
scalar LocScenario.node[32].nic.mac1609_4 	TooLittleTime 	0
scalar LocScenario.node[32].nic.mac1609_4 	TimesIntoBackoff 	2281
scalar LocScenario.node[32].nic.mac1609_4 	SlotsBackoff 	3418
scalar LocScenario.node[32].nic.mac1609_4 	NumInternalContention 	0
scalar LocScenario.node[32].nic.mac1609_4 	totalBusyTime 	1.946873
scalar LocScenario.node[32].veinsmobility 	startTime 	160.1
scalar LocScenario.node[32].veinsmobility 	totalTime 	228
scalar LocScenario.node[32].veinsmobility 	stopTime 	388.2
scalar LocScenario.node[32].veinsmobility 	minSpeed 	10.450020554743
scalar LocScenario.node[32].veinsmobility 	maxSpeed 	10.499989211955
scalar LocScenario.node[32].veinsmobility 	totalDistance 	2394.6739604507
scalar LocScenario.node[32].veinsmobility 	totalCO2Emission 	393.43393002095
scalar LocScenario.node[39].appl 	generatedWSMs 	0
scalar LocScenario.node[39].appl 	receivedWSMs 	0
scalar LocScenario.node[39].appl 	generatedBSMs 	2040
scalar LocScenario.node[39].appl 	receivedBSMs 	15712
scalar LocScenario.node[39].appl 	generatedWSAs 	0
scalar LocScenario.node[39].appl 	receivedWSAs 	0
scalar LocScenario.node[39].appl 	rmseSUMGPS 	897704.93056914
scalar LocScenario.node[39].appl 	rmseSUMCP 	630818.83704376
scalar LocScenario.node[39].appl 	delaySum 	1.7915594771206
scalar LocScenario.node[39].nic.phy80211p 	busyTime 	0.0080100392156891
scalar LocScenario.node[39].nic.mac1609_4 	ReceivedUnicastPackets 	0
scalar LocScenario.node[39].nic.mac1609_4 	ReceivedBroadcasts 	15712
scalar LocScenario.node[39].nic.mac1609_4 	SentPackets 	2040
scalar LocScenario.node[39].nic.mac1609_4 	SNIRLostPackets 	0
scalar LocScenario.node[39].nic.mac1609_4 	RXTXLostPackets 	0
scalar LocScenario.node[39].nic.mac1609_4 	TotalLostPackets 	0
scalar LocScenario.node[39].nic.mac1609_4 	DroppedPacketsInMac 	0
scalar LocScenario.node[39].nic.mac1609_4 	TooLittleTime 	0
scalar LocScenario.node[39].nic.mac1609_4 	TimesIntoBackoff 	2040
scalar LocScenario.node[39].nic.mac1609_4 	SlotsBackoff 	3021
scalar LocScenario.node[39].nic.mac1609_4 	NumInternalContention 	0
scalar LocScenario.node[39].nic.mac1609_4 	totalBusyTime 	1.848248
scalar LocScenario.node[39].veinsmobility 	startTime 	190.1
scalar LocScenario.node[39].veinsmobility 	totalTime 	203.9
scalar LocScenario.node[39].veinsmobility 	stopTime 	394.1
scalar LocScenario.node[39].veinsmobility 	minSpeed 	10.450005579041
scalar LocScenario.node[39].veinsmobility 	maxSpeed 	10.499892711302
scalar LocScenario.node[39].veinsmobility 	totalDistance 	2133.8212233176
scalar LocScenario.node[39].veinsmobility 	totalCO2Emission 	352.17757350937
scalar LocScenario.node[34].appl 	generatedWSMs 	0
scalar LocScenario.node[34].appl 	receivedWSMs 	0
scalar LocScenario.node[34].appl 	generatedBSMs 	2281
scalar LocScenario.node[34].appl 	receivedBSMs 	16626
scalar LocScenario.node[34].appl 	generatedWSAs 	0
scalar LocScenario.node[34].appl 	receivedWSAs 	0
scalar LocScenario.node[34].appl 	rmseSUMGPS 	437883.19565526
scalar LocScenario.node[34].appl 	rmseSUMCP 	627680.56265395
scalar LocScenario.node[34].appl 	delaySum 	2.1927803872372
scalar LocScenario.node[34].nic.phy80211p 	busyTime 	0.0075827444103493
scalar LocScenario.node[34].nic.mac1609_4 	ReceivedUnicastPackets 	0
scalar LocScenario.node[34].nic.mac1609_4 	ReceivedBroadcasts 	16626
scalar LocScenario.node[34].nic.mac1609_4 	SentPackets 	2281
scalar LocScenario.node[34].nic.mac1609_4 	SNIRLostPackets 	5
scalar LocScenario.node[34].nic.mac1609_4 	RXTXLostPackets 	0
scalar LocScenario.node[34].nic.mac1609_4 	TotalLostPackets 	5
scalar LocScenario.node[34].nic.mac1609_4 	DroppedPacketsInMac 	0
scalar LocScenario.node[34].nic.mac1609_4 	TooLittleTime 	0
scalar LocScenario.node[34].nic.mac1609_4 	TimesIntoBackoff 	2281
scalar LocScenario.node[34].nic.mac1609_4 	SlotsBackoff 	3390
scalar LocScenario.node[34].nic.mac1609_4 	NumInternalContention 	0
scalar LocScenario.node[34].nic.mac1609_4 	totalBusyTime 	1.969129
scalar LocScenario.node[34].veinsmobility 	startTime 	170.1
scalar LocScenario.node[34].veinsmobility 	totalTime 	228
scalar LocScenario.node[34].veinsmobility 	stopTime 	398.2
scalar LocScenario.node[34].veinsmobility 	minSpeed 	10.450025817985
scalar LocScenario.node[34].veinsmobility 	maxSpeed 	10.499988029373
scalar LocScenario.node[34].veinsmobility 	totalDistance 	2394.6927402895
scalar LocScenario.node[34].veinsmobility 	totalCO2Emission 	393.66627069531
scalar LocScenario.node[41].appl 	generatedWSMs 	0
scalar LocScenario.node[41].appl 	receivedWSMs 	0
scalar LocScenario.node[41].appl 	generatedBSMs 	2040
scalar LocScenario.node[41].appl 	receivedBSMs 	15833
scalar LocScenario.node[41].appl 	generatedWSAs 	0
scalar LocScenario.node[41].appl 	receivedWSAs 	0
scalar LocScenario.node[41].appl 	rmseSUMGPS 	1044845.5429491
scalar LocScenario.node[41].appl 	rmseSUMCP 	613915.93516354
scalar LocScenario.node[41].appl 	delaySum 	1.8063710329422
scalar LocScenario.node[41].nic.phy80211p 	busyTime 	0.008071725490199
scalar LocScenario.node[41].nic.mac1609_4 	ReceivedUnicastPackets 	0
scalar LocScenario.node[41].nic.mac1609_4 	ReceivedBroadcasts 	15833
scalar LocScenario.node[41].nic.mac1609_4 	SentPackets 	2040
scalar LocScenario.node[41].nic.mac1609_4 	SNIRLostPackets 	0
scalar LocScenario.node[41].nic.mac1609_4 	RXTXLostPackets 	0
scalar LocScenario.node[41].nic.mac1609_4 	TotalLostPackets 	0
scalar LocScenario.node[41].nic.mac1609_4 	DroppedPacketsInMac 	0
scalar LocScenario.node[41].nic.mac1609_4 	TooLittleTime 	0
scalar LocScenario.node[41].nic.mac1609_4 	TimesIntoBackoff 	2040
scalar LocScenario.node[41].nic.mac1609_4 	SlotsBackoff 	2967
scalar LocScenario.node[41].nic.mac1609_4 	NumInternalContention 	0
scalar LocScenario.node[41].nic.mac1609_4 	totalBusyTime 	1.860832
scalar LocScenario.node[41].veinsmobility 	startTime 	200.1
scalar LocScenario.node[41].veinsmobility 	totalTime 	203.9
scalar LocScenario.node[41].veinsmobility 	stopTime 	404.1
scalar LocScenario.node[41].veinsmobility 	minSpeed 	10.450029668421
scalar LocScenario.node[41].veinsmobility 	maxSpeed 	10.499952535029
scalar LocScenario.node[41].veinsmobility 	totalDistance 	2133.8743928872
scalar LocScenario.node[41].veinsmobility 	totalCO2Emission 	351.57295604472
scalar LocScenario.node[36].appl 	generatedWSMs 	0
scalar LocScenario.node[36].appl 	receivedWSMs 	0
scalar LocScenario.node[36].appl 	generatedBSMs 	2281
scalar LocScenario.node[36].appl 	receivedBSMs 	16840
scalar LocScenario.node[36].appl 	generatedWSAs 	0
scalar LocScenario.node[36].appl 	receivedWSAs 	0
scalar LocScenario.node[36].appl 	rmseSUMGPS 	895110.81121305
scalar LocScenario.node[36].appl 	rmseSUMCP 	679199.72966892
scalar LocScenario.node[36].appl 	delaySum 	1.8878874966811
scalar LocScenario.node[36].nic.phy80211p 	busyTime 	0.0076816834721644
scalar LocScenario.node[36].nic.mac1609_4 	ReceivedUnicastPackets 	0
scalar LocScenario.node[36].nic.mac1609_4 	ReceivedBroadcasts 	16840
scalar LocScenario.node[36].nic.mac1609_4 	SentPackets 	2281
scalar LocScenario.node[36].nic.mac1609_4 	SNIRLostPackets 	8
scalar LocScenario.node[36].nic.mac1609_4 	RXTXLostPackets 	0
scalar LocScenario.node[36].nic.mac1609_4 	TotalLostPackets 	8
scalar LocScenario.node[36].nic.mac1609_4 	DroppedPacketsInMac 	0
scalar LocScenario.node[36].nic.mac1609_4 	TooLittleTime 	0
scalar LocScenario.node[36].nic.mac1609_4 	TimesIntoBackoff 	4462
scalar LocScenario.node[36].nic.mac1609_4 	SlotsBackoff 	6691
scalar LocScenario.node[36].nic.mac1609_4 	NumInternalContention 	0
scalar LocScenario.node[36].nic.mac1609_4 	totalBusyTime 	1.991697
scalar LocScenario.node[36].veinsmobility 	startTime 	180.1
scalar LocScenario.node[36].veinsmobility 	totalTime 	228
scalar LocScenario.node[36].veinsmobility 	stopTime 	408.2
scalar LocScenario.node[36].veinsmobility 	minSpeed 	10.450017136277
scalar LocScenario.node[36].veinsmobility 	maxSpeed 	10.49999190513
scalar LocScenario.node[36].veinsmobility 	totalDistance 	2388.6677303056
scalar LocScenario.node[36].veinsmobility 	totalCO2Emission 	393.34800063042
scalar LocScenario.node[43].appl 	generatedWSMs 	0
scalar LocScenario.node[43].appl 	receivedWSMs 	0
scalar LocScenario.node[43].appl 	generatedBSMs 	2040
scalar LocScenario.node[43].appl 	receivedBSMs 	15926
scalar LocScenario.node[43].appl 	generatedWSAs 	0
scalar LocScenario.node[43].appl 	receivedWSAs 	0
scalar LocScenario.node[43].appl 	rmseSUMGPS 	321211.9630322
scalar LocScenario.node[43].appl 	rmseSUMCP 	627135.18046032
scalar LocScenario.node[43].appl 	delaySum 	1.8175195484401
scalar LocScenario.node[43].nic.phy80211p 	busyTime 	0.0081191372549049
scalar LocScenario.node[43].nic.mac1609_4 	ReceivedUnicastPackets 	0
scalar LocScenario.node[43].nic.mac1609_4 	ReceivedBroadcasts 	15926
scalar LocScenario.node[43].nic.mac1609_4 	SentPackets 	2040
scalar LocScenario.node[43].nic.mac1609_4 	SNIRLostPackets 	0
scalar LocScenario.node[43].nic.mac1609_4 	RXTXLostPackets 	0
scalar LocScenario.node[43].nic.mac1609_4 	TotalLostPackets 	0
scalar LocScenario.node[43].nic.mac1609_4 	DroppedPacketsInMac 	0
scalar LocScenario.node[43].nic.mac1609_4 	TooLittleTime 	0
scalar LocScenario.node[43].nic.mac1609_4 	TimesIntoBackoff 	2040
scalar LocScenario.node[43].nic.mac1609_4 	SlotsBackoff 	3013
scalar LocScenario.node[43].nic.mac1609_4 	NumInternalContention 	0
scalar LocScenario.node[43].nic.mac1609_4 	totalBusyTime 	1.870504
scalar LocScenario.node[43].veinsmobility 	startTime 	210.1
scalar LocScenario.node[43].veinsmobility 	totalTime 	203.9
scalar LocScenario.node[43].veinsmobility 	stopTime 	414.1
scalar LocScenario.node[43].veinsmobility 	minSpeed 	10.450007108797
scalar LocScenario.node[43].veinsmobility 	maxSpeed 	10.499925626337
scalar LocScenario.node[43].veinsmobility 	totalDistance 	2133.7820481634
scalar LocScenario.node[43].veinsmobility 	totalCO2Emission 	352.12234342444
scalar LocScenario.node[38].appl 	generatedWSMs 	0
scalar LocScenario.node[38].appl 	receivedWSMs 	0
scalar LocScenario.node[38].appl 	generatedBSMs 	2281
scalar LocScenario.node[38].appl 	receivedBSMs 	16975
scalar LocScenario.node[38].appl 	generatedWSAs 	0
scalar LocScenario.node[38].appl 	receivedWSAs 	0
scalar LocScenario.node[38].appl 	rmseSUMGPS 	871263.18714205
scalar LocScenario.node[38].appl 	rmseSUMCP 	659949.07113089
scalar LocScenario.node[38].appl 	delaySum 	2.2200855592187
scalar LocScenario.node[38].nic.phy80211p 	busyTime 	0.0077436913634402
scalar LocScenario.node[38].nic.mac1609_4 	ReceivedUnicastPackets 	0
scalar LocScenario.node[38].nic.mac1609_4 	ReceivedBroadcasts 	16975
scalar LocScenario.node[38].nic.mac1609_4 	SentPackets 	2281
scalar LocScenario.node[38].nic.mac1609_4 	SNIRLostPackets 	9
scalar LocScenario.node[38].nic.mac1609_4 	RXTXLostPackets 	0
scalar LocScenario.node[38].nic.mac1609_4 	TotalLostPackets 	9
scalar LocScenario.node[38].nic.mac1609_4 	DroppedPacketsInMac 	0
scalar LocScenario.node[38].nic.mac1609_4 	TooLittleTime 	0
scalar LocScenario.node[38].nic.mac1609_4 	TimesIntoBackoff 	2281
scalar LocScenario.node[38].nic.mac1609_4 	SlotsBackoff 	3449
scalar LocScenario.node[38].nic.mac1609_4 	NumInternalContention 	0
scalar LocScenario.node[38].nic.mac1609_4 	totalBusyTime 	2.005841
scalar LocScenario.node[38].veinsmobility 	startTime 	190.1
scalar LocScenario.node[38].veinsmobility 	totalTime 	228
scalar LocScenario.node[38].veinsmobility 	stopTime 	418.2
scalar LocScenario.node[38].veinsmobility 	minSpeed 	10.450026782078
scalar LocScenario.node[38].veinsmobility 	maxSpeed 	10.499951723032
scalar LocScenario.node[38].veinsmobility 	totalDistance 	2388.8052940102
scalar LocScenario.node[38].veinsmobility 	totalCO2Emission 	394.04479693632
scalar LocScenario.node[45].appl 	generatedWSMs 	0
scalar LocScenario.node[45].appl 	receivedWSMs 	0
scalar LocScenario.node[45].appl 	generatedBSMs 	2040
scalar LocScenario.node[45].appl 	receivedBSMs 	15959
scalar LocScenario.node[45].appl 	generatedWSAs 	0
scalar LocScenario.node[45].appl 	receivedWSAs 	0
scalar LocScenario.node[45].appl 	rmseSUMGPS 	647466.58795441
scalar LocScenario.node[45].appl 	rmseSUMCP 	656847.34865299
scalar LocScenario.node[45].appl 	delaySum 	1.8207891063586
scalar LocScenario.node[45].nic.phy80211p 	busyTime 	0.0081359607843167
scalar LocScenario.node[45].nic.mac1609_4 	ReceivedUnicastPackets 	0
scalar LocScenario.node[45].nic.mac1609_4 	ReceivedBroadcasts 	15959
scalar LocScenario.node[45].nic.mac1609_4 	SentPackets 	2040
scalar LocScenario.node[45].nic.mac1609_4 	SNIRLostPackets 	0
scalar LocScenario.node[45].nic.mac1609_4 	RXTXLostPackets 	0
scalar LocScenario.node[45].nic.mac1609_4 	TotalLostPackets 	0
scalar LocScenario.node[45].nic.mac1609_4 	DroppedPacketsInMac 	0
scalar LocScenario.node[45].nic.mac1609_4 	TooLittleTime 	0
scalar LocScenario.node[45].nic.mac1609_4 	TimesIntoBackoff 	2040
[...]
scalar LocScenario.node[281].veinsmobility 	stopTime 	1505.5475257399
scalar LocScenario.node[281].veinsmobility 	minSpeed 	10.450089274941
scalar LocScenario.node[281].veinsmobility 	maxSpeed 	10.499997518328
scalar LocScenario.node[281].veinsmobility 	totalDistance 	1107.1402072468
scalar LocScenario.node[281].veinsmobility 	totalCO2Emission 	182.03283198566
scalar LocScenario.node[283].appl 	generatedWSMs 	0
scalar LocScenario.node[283].appl 	receivedWSMs 	0
scalar LocScenario.node[283].appl 	generatedBSMs 	955
scalar LocScenario.node[283].appl 	receivedBSMs 	7471
scalar LocScenario.node[283].appl 	generatedWSAs 	0
scalar LocScenario.node[283].appl 	receivedWSAs 	0
scalar LocScenario.node[283].appl 	rmseSUMGPS 	128292.34836409
scalar LocScenario.node[283].appl 	rmseSUMCP 	214217.69708477
scalar LocScenario.node[283].appl 	delaySum 	9.8802745781426
scalar LocScenario.node[283].nic.phy80211p 	busyTime 	0.0081404310271734
scalar LocScenario.node[283].nic.mac1609_4 	ReceivedUnicastPackets 	0
scalar LocScenario.node[283].nic.mac1609_4 	ReceivedBroadcasts 	7471
scalar LocScenario.node[283].nic.mac1609_4 	SentPackets 	955
scalar LocScenario.node[283].nic.mac1609_4 	SNIRLostPackets 	0
scalar LocScenario.node[283].nic.mac1609_4 	RXTXLostPackets 	0
scalar LocScenario.node[283].nic.mac1609_4 	TotalLostPackets 	0
scalar LocScenario.node[283].nic.mac1609_4 	DroppedPacketsInMac 	0
scalar LocScenario.node[283].nic.mac1609_4 	TooLittleTime 	0
scalar LocScenario.node[283].nic.mac1609_4 	TimesIntoBackoff 	955
scalar LocScenario.node[283].nic.mac1609_4 	SlotsBackoff 	1426
scalar LocScenario.node[283].nic.mac1609_4 	NumInternalContention 	0
scalar LocScenario.node[283].nic.mac1609_4 	totalBusyTime 	0.877259
scalar LocScenario.node[283].veinsmobility 	startTime 	1410.1
scalar LocScenario.node[283].veinsmobility 	totalTime 	95.4
scalar LocScenario.node[283].veinsmobility 	stopTime 	1505.5475257399
scalar LocScenario.node[283].veinsmobility 	minSpeed 	10.450003352924
scalar LocScenario.node[283].veinsmobility 	maxSpeed 	10.499991941312
scalar LocScenario.node[283].veinsmobility 	totalDistance 	997.55187963831
scalar LocScenario.node[283].veinsmobility 	totalCO2Emission 	164.63987806655
scalar LocScenario.node[285].appl 	generatedWSMs 	0
scalar LocScenario.node[285].appl 	receivedWSMs 	0
scalar LocScenario.node[285].appl 	generatedBSMs 	854
scalar LocScenario.node[285].appl 	receivedBSMs 	6597
scalar LocScenario.node[285].appl 	generatedWSAs 	0
scalar LocScenario.node[285].appl 	receivedWSAs 	0
scalar LocScenario.node[285].appl 	rmseSUMGPS 	182875.85198885
scalar LocScenario.node[285].appl 	rmseSUMCP 	166155.16232392
scalar LocScenario.node[285].appl 	delaySum 	4.3471291750718
scalar LocScenario.node[285].nic.phy80211p 	busyTime 	0.0080305660586214
scalar LocScenario.node[285].nic.mac1609_4 	ReceivedUnicastPackets 	0
scalar LocScenario.node[285].nic.mac1609_4 	ReceivedBroadcasts 	6597
scalar LocScenario.node[285].nic.mac1609_4 	SentPackets 	854
scalar LocScenario.node[285].nic.mac1609_4 	SNIRLostPackets 	0
scalar LocScenario.node[285].nic.mac1609_4 	RXTXLostPackets 	0
scalar LocScenario.node[285].nic.mac1609_4 	TotalLostPackets 	0
scalar LocScenario.node[285].nic.mac1609_4 	DroppedPacketsInMac 	0
scalar LocScenario.node[285].nic.mac1609_4 	TooLittleTime 	0
scalar LocScenario.node[285].nic.mac1609_4 	TimesIntoBackoff 	854
scalar LocScenario.node[285].nic.mac1609_4 	SlotsBackoff 	1304
scalar LocScenario.node[285].nic.mac1609_4 	NumInternalContention 	0
scalar LocScenario.node[285].nic.mac1609_4 	totalBusyTime 	0.775758
scalar LocScenario.node[285].veinsmobility 	startTime 	1420.1
scalar LocScenario.node[285].veinsmobility 	totalTime 	85.4
scalar LocScenario.node[285].veinsmobility 	stopTime 	1505.5475257399
scalar LocScenario.node[285].veinsmobility 	minSpeed 	10.45002947133
scalar LocScenario.node[285].veinsmobility 	maxSpeed 	10.499976071424
scalar LocScenario.node[285].veinsmobility 	totalDistance 	892.87128931586
scalar LocScenario.node[285].veinsmobility 	totalCO2Emission 	147.84182197705
scalar LocScenario.node[287].appl 	generatedWSMs 	0
scalar LocScenario.node[287].appl 	receivedWSMs 	0
scalar LocScenario.node[287].appl 	generatedBSMs 	754
scalar LocScenario.node[287].appl 	receivedBSMs 	5782
scalar LocScenario.node[287].appl 	generatedWSAs 	0
scalar LocScenario.node[287].appl 	receivedWSAs 	0
scalar LocScenario.node[287].appl 	rmseSUMGPS 	66035.169744552
scalar LocScenario.node[287].appl 	rmseSUMCP 	155596.86917272
scalar LocScenario.node[287].appl 	delaySum 	11.692009505291
scalar LocScenario.node[287].nic.phy80211p 	busyTime 	0.0079701487106822
scalar LocScenario.node[287].nic.mac1609_4 	ReceivedUnicastPackets 	0
scalar LocScenario.node[287].nic.mac1609_4 	ReceivedBroadcasts 	5782
scalar LocScenario.node[287].nic.mac1609_4 	SentPackets 	754
scalar LocScenario.node[287].nic.mac1609_4 	SNIRLostPackets 	0
scalar LocScenario.node[287].nic.mac1609_4 	RXTXLostPackets 	0
scalar LocScenario.node[287].nic.mac1609_4 	TotalLostPackets 	0
scalar LocScenario.node[287].nic.mac1609_4 	DroppedPacketsInMac 	0
scalar LocScenario.node[287].nic.mac1609_4 	TooLittleTime 	0
scalar LocScenario.node[287].nic.mac1609_4 	TimesIntoBackoff 	754
scalar LocScenario.node[287].nic.mac1609_4 	SlotsBackoff 	1159
scalar LocScenario.node[287].nic.mac1609_4 	NumInternalContention 	0
scalar LocScenario.node[287].nic.mac1609_4 	totalBusyTime 	0.680498
scalar LocScenario.node[287].veinsmobility 	startTime 	1430.1
scalar LocScenario.node[287].veinsmobility 	totalTime 	75.4
scalar LocScenario.node[287].veinsmobility 	stopTime 	1505.5475257399
scalar LocScenario.node[287].veinsmobility 	minSpeed 	10.450075367489
scalar LocScenario.node[287].veinsmobility 	maxSpeed 	10.499983496871
scalar LocScenario.node[287].veinsmobility 	totalDistance 	788.2477924057
scalar LocScenario.node[287].veinsmobility 	totalCO2Emission 	130.11698294735
scalar LocScenario.node[289].appl 	generatedWSMs 	0
scalar LocScenario.node[289].appl 	receivedWSMs 	0
scalar LocScenario.node[289].appl 	generatedBSMs 	654
scalar LocScenario.node[289].appl 	receivedBSMs 	4914
scalar LocScenario.node[289].appl 	generatedWSAs 	0
scalar LocScenario.node[289].appl 	receivedWSAs 	0
scalar LocScenario.node[289].appl 	rmseSUMGPS 	7751.5168814891
scalar LocScenario.node[289].appl 	rmseSUMCP 	109719.69355486
scalar LocScenario.node[289].appl 	delaySum 	10.286156949963
scalar LocScenario.node[289].nic.phy80211p 	busyTime 	0.0078086374423238
scalar LocScenario.node[289].nic.mac1609_4 	ReceivedUnicastPackets 	0
scalar LocScenario.node[289].nic.mac1609_4 	ReceivedBroadcasts 	4914
scalar LocScenario.node[289].nic.mac1609_4 	SentPackets 	654
scalar LocScenario.node[289].nic.mac1609_4 	SNIRLostPackets 	0
scalar LocScenario.node[289].nic.mac1609_4 	RXTXLostPackets 	0
scalar LocScenario.node[289].nic.mac1609_4 	TotalLostPackets 	0
scalar LocScenario.node[289].nic.mac1609_4 	DroppedPacketsInMac 	0
scalar LocScenario.node[289].nic.mac1609_4 	TooLittleTime 	0
scalar LocScenario.node[289].nic.mac1609_4 	TimesIntoBackoff 	654
scalar LocScenario.node[289].nic.mac1609_4 	SlotsBackoff 	963
scalar LocScenario.node[289].nic.mac1609_4 	NumInternalContention 	0
scalar LocScenario.node[289].nic.mac1609_4 	totalBusyTime 	0.579726
scalar LocScenario.node[289].veinsmobility 	startTime 	1440.1
scalar LocScenario.node[289].veinsmobility 	totalTime 	65.4
scalar LocScenario.node[289].veinsmobility 	stopTime 	1505.5475257399
scalar LocScenario.node[289].veinsmobility 	minSpeed 	10.45004191217
scalar LocScenario.node[289].veinsmobility 	maxSpeed 	10.499898400076
scalar LocScenario.node[289].veinsmobility 	totalDistance 	688.37601031912
scalar LocScenario.node[289].veinsmobility 	totalCO2Emission 	112.71246489458
scalar LocScenario.node[291].appl 	generatedWSMs 	0
scalar LocScenario.node[291].appl 	receivedWSMs 	0
scalar LocScenario.node[291].appl 	generatedBSMs 	554
scalar LocScenario.node[291].appl 	receivedBSMs 	4091
scalar LocScenario.node[291].appl 	generatedWSAs 	0
scalar LocScenario.node[291].appl 	receivedWSAs 	0
scalar LocScenario.node[291].appl 	rmseSUMGPS 	5052.3785761812
scalar LocScenario.node[291].appl 	rmseSUMCP 	73148.754268775
scalar LocScenario.node[291].appl 	delaySum 	2.36425472152
scalar LocScenario.node[291].nic.phy80211p 	busyTime 	0.0076732729607423
scalar LocScenario.node[291].nic.mac1609_4 	ReceivedUnicastPackets 	0
scalar LocScenario.node[291].nic.mac1609_4 	ReceivedBroadcasts 	4091
scalar LocScenario.node[291].nic.mac1609_4 	SentPackets 	554
scalar LocScenario.node[291].nic.mac1609_4 	SNIRLostPackets 	0
scalar LocScenario.node[291].nic.mac1609_4 	RXTXLostPackets 	0
scalar LocScenario.node[291].nic.mac1609_4 	TotalLostPackets 	0
scalar LocScenario.node[291].nic.mac1609_4 	DroppedPacketsInMac 	0
scalar LocScenario.node[291].nic.mac1609_4 	TooLittleTime 	0
scalar LocScenario.node[291].nic.mac1609_4 	TimesIntoBackoff 	554
scalar LocScenario.node[291].nic.mac1609_4 	SlotsBackoff 	842
scalar LocScenario.node[291].nic.mac1609_4 	NumInternalContention 	0
scalar LocScenario.node[291].nic.mac1609_4 	totalBusyTime 	0.483634
scalar LocScenario.node[291].veinsmobility 	startTime 	1450.1
scalar LocScenario.node[291].veinsmobility 	totalTime 	55.4
scalar LocScenario.node[291].veinsmobility 	stopTime 	1505.5475257399
scalar LocScenario.node[291].veinsmobility 	minSpeed 	10.45030239966
scalar LocScenario.node[291].veinsmobility 	maxSpeed 	10.499928343424
scalar LocScenario.node[291].veinsmobility 	totalDistance 	578.86330827036
scalar LocScenario.node[291].veinsmobility 	totalCO2Emission 	95.491559691346
scalar LocScenario.node[293].appl 	generatedWSMs 	0
scalar LocScenario.node[293].appl 	receivedWSMs 	0
scalar LocScenario.node[293].appl 	generatedBSMs 	455
scalar LocScenario.node[293].appl 	receivedBSMs 	3217
scalar LocScenario.node[293].appl 	generatedWSAs 	0
scalar LocScenario.node[293].appl 	receivedWSAs 	0
scalar LocScenario.node[293].appl 	rmseSUMGPS 	4107.4385395896
scalar LocScenario.node[293].appl 	rmseSUMCP 	43531.787463889
scalar LocScenario.node[293].appl 	delaySum 	2.2674072982697
scalar LocScenario.node[293].nic.phy80211p 	busyTime 	0.0073616328843687
scalar LocScenario.node[293].nic.mac1609_4 	ReceivedUnicastPackets 	0
scalar LocScenario.node[293].nic.mac1609_4 	ReceivedBroadcasts 	3217
scalar LocScenario.node[293].nic.mac1609_4 	SentPackets 	455
scalar LocScenario.node[293].nic.mac1609_4 	SNIRLostPackets 	0
scalar LocScenario.node[293].nic.mac1609_4 	RXTXLostPackets 	0
scalar LocScenario.node[293].nic.mac1609_4 	TotalLostPackets 	0
scalar LocScenario.node[293].nic.mac1609_4 	DroppedPacketsInMac 	0
scalar LocScenario.node[293].nic.mac1609_4 	TooLittleTime 	0
scalar LocScenario.node[293].nic.mac1609_4 	TimesIntoBackoff 	455
scalar LocScenario.node[293].nic.mac1609_4 	SlotsBackoff 	658
scalar LocScenario.node[293].nic.mac1609_4 	NumInternalContention 	0
scalar LocScenario.node[293].nic.mac1609_4 	totalBusyTime 	0.382343
scalar LocScenario.node[293].veinsmobility 	startTime 	1460.1
scalar LocScenario.node[293].veinsmobility 	totalTime 	45.4
scalar LocScenario.node[293].veinsmobility 	stopTime 	1505.5475257399
scalar LocScenario.node[293].veinsmobility 	minSpeed 	10.450019702455
scalar LocScenario.node[293].veinsmobility 	maxSpeed 	10.499953974958
scalar LocScenario.node[293].veinsmobility 	totalDistance 	474.16496463771
scalar LocScenario.node[293].veinsmobility 	totalCO2Emission 	78.331120693114
scalar LocScenario.node[295].appl 	generatedWSMs 	0
scalar LocScenario.node[295].appl 	receivedWSMs 	0
scalar LocScenario.node[295].appl 	generatedBSMs 	354
scalar LocScenario.node[295].appl 	receivedBSMs 	2491
scalar LocScenario.node[295].appl 	generatedWSAs 	0
scalar LocScenario.node[295].appl 	receivedWSAs 	0
scalar LocScenario.node[295].appl 	rmseSUMGPS 	9611.3138093618
scalar LocScenario.node[295].appl 	rmseSUMCP 	23655.910159393
scalar LocScenario.node[295].appl 	delaySum 	5.7132368754699
scalar LocScenario.node[295].nic.phy80211p 	busyTime 	0.0073083803338195
scalar LocScenario.node[295].nic.mac1609_4 	ReceivedUnicastPackets 	0
scalar LocScenario.node[295].nic.mac1609_4 	ReceivedBroadcasts 	2491
scalar LocScenario.node[295].nic.mac1609_4 	SentPackets 	354
scalar LocScenario.node[295].nic.mac1609_4 	SNIRLostPackets 	0
scalar LocScenario.node[295].nic.mac1609_4 	RXTXLostPackets 	0
scalar LocScenario.node[295].nic.mac1609_4 	TotalLostPackets 	0
scalar LocScenario.node[295].nic.mac1609_4 	DroppedPacketsInMac 	0
scalar LocScenario.node[295].nic.mac1609_4 	TooLittleTime 	0
scalar LocScenario.node[295].nic.mac1609_4 	TimesIntoBackoff 	354
scalar LocScenario.node[295].nic.mac1609_4 	SlotsBackoff 	496
scalar LocScenario.node[295].nic.mac1609_4 	NumInternalContention 	0
scalar LocScenario.node[295].nic.mac1609_4 	totalBusyTime 	0.296234
scalar LocScenario.node[295].veinsmobility 	startTime 	1470.1
scalar LocScenario.node[295].veinsmobility 	totalTime 	35.4
scalar LocScenario.node[295].veinsmobility 	stopTime 	1505.5475257399
scalar LocScenario.node[295].veinsmobility 	minSpeed 	10.450130904431
scalar LocScenario.node[295].veinsmobility 	maxSpeed 	10.499929908873
scalar LocScenario.node[295].veinsmobility 	totalDistance 	369.70247196327
scalar LocScenario.node[295].veinsmobility 	totalCO2Emission 	61.05194884236
scalar LocScenario.node[297].appl 	generatedWSMs 	0
scalar LocScenario.node[297].appl 	receivedWSMs 	0
scalar LocScenario.node[297].appl 	generatedBSMs 	254
scalar LocScenario.node[297].appl 	receivedBSMs 	1672
scalar LocScenario.node[297].appl 	generatedWSAs 	0
scalar LocScenario.node[297].appl 	receivedWSAs 	0
scalar LocScenario.node[297].appl 	rmseSUMGPS 	2303.3620450544
scalar LocScenario.node[297].appl 	rmseSUMCP 	13101.584504059
scalar LocScenario.node[297].appl 	delaySum 	7.5566009210404
scalar LocScenario.node[297].nic.phy80211p 	busyTime 	0.0068331987077001
scalar LocScenario.node[297].nic.mac1609_4 	ReceivedUnicastPackets 	0
scalar LocScenario.node[297].nic.mac1609_4 	ReceivedBroadcasts 	1672
scalar LocScenario.node[297].nic.mac1609_4 	SentPackets 	254
scalar LocScenario.node[297].nic.mac1609_4 	SNIRLostPackets 	0
scalar LocScenario.node[297].nic.mac1609_4 	RXTXLostPackets 	0
scalar LocScenario.node[297].nic.mac1609_4 	TotalLostPackets 	0
scalar LocScenario.node[297].nic.mac1609_4 	DroppedPacketsInMac 	0
scalar LocScenario.node[297].nic.mac1609_4 	TooLittleTime 	0
scalar LocScenario.node[297].nic.mac1609_4 	TimesIntoBackoff 	254
scalar LocScenario.node[297].nic.mac1609_4 	SlotsBackoff 	368
scalar LocScenario.node[297].nic.mac1609_4 	NumInternalContention 	0
scalar LocScenario.node[297].nic.mac1609_4 	totalBusyTime 	0.200558
scalar LocScenario.node[297].veinsmobility 	startTime 	1480.1
scalar LocScenario.node[297].veinsmobility 	totalTime 	25.4
scalar LocScenario.node[297].veinsmobility 	stopTime 	1505.5475257399
scalar LocScenario.node[297].veinsmobility 	minSpeed 	10.450363488763
scalar LocScenario.node[297].veinsmobility 	maxSpeed 	10.499985043041
scalar LocScenario.node[297].veinsmobility 	totalDistance 	266.87493990231
scalar LocScenario.node[297].veinsmobility 	totalCO2Emission 	43.493854509117
scalar LocScenario.node[299].appl 	generatedWSMs 	0
scalar LocScenario.node[299].appl 	receivedWSMs 	0
scalar LocScenario.node[299].appl 	generatedBSMs 	154
scalar LocScenario.node[299].appl 	receivedBSMs 	968
scalar LocScenario.node[299].appl 	generatedWSAs 	0
scalar LocScenario.node[299].appl 	receivedWSAs 	0
scalar LocScenario.node[299].appl 	rmseSUMGPS 	1383.5012850344
scalar LocScenario.node[299].appl 	rmseSUMCP 	8824.9865336113
scalar LocScenario.node[299].appl 	delaySum 	9.6412280670946
scalar LocScenario.node[299].nic.phy80211p 	busyTime 	0.0065170307332791
scalar LocScenario.node[299].nic.mac1609_4 	ReceivedUnicastPackets 	0
scalar LocScenario.node[299].nic.mac1609_4 	ReceivedBroadcasts 	968
scalar LocScenario.node[299].nic.mac1609_4 	SentPackets 	154
scalar LocScenario.node[299].nic.mac1609_4 	SNIRLostPackets 	0
scalar LocScenario.node[299].nic.mac1609_4 	RXTXLostPackets 	0
scalar LocScenario.node[299].nic.mac1609_4 	TotalLostPackets 	0
scalar LocScenario.node[299].nic.mac1609_4 	DroppedPacketsInMac 	0
scalar LocScenario.node[299].nic.mac1609_4 	TooLittleTime 	0
scalar LocScenario.node[299].nic.mac1609_4 	TimesIntoBackoff 	154
scalar LocScenario.node[299].nic.mac1609_4 	SlotsBackoff 	230
scalar LocScenario.node[299].nic.mac1609_4 	NumInternalContention 	0
scalar LocScenario.node[299].nic.mac1609_4 	totalBusyTime 	0.116842
scalar LocScenario.node[299].veinsmobility 	startTime 	1490.1
scalar LocScenario.node[299].veinsmobility 	totalTime 	15.4
scalar LocScenario.node[299].veinsmobility 	stopTime 	1505.5475257399
scalar LocScenario.node[299].veinsmobility 	minSpeed 	10.450031430728
scalar LocScenario.node[299].veinsmobility 	maxSpeed 	10.499697374424
scalar LocScenario.node[299].veinsmobility 	totalDistance 	161.75623706739
scalar LocScenario.node[299].veinsmobility 	totalCO2Emission 	26.361748741769
scalar LocScenario.node[301].appl 	generatedWSMs 	0
scalar LocScenario.node[301].appl 	receivedWSMs 	0
scalar LocScenario.node[301].appl 	generatedBSMs 	54
scalar LocScenario.node[301].appl 	receivedBSMs 	309
scalar LocScenario.node[301].appl 	generatedWSAs 	0
scalar LocScenario.node[301].appl 	receivedWSAs 	0
scalar LocScenario.node[301].appl 	rmseSUMGPS 	486.03447473062
scalar LocScenario.node[301].appl 	rmseSUMCP 	3330.908541713
scalar LocScenario.node[301].appl 	delaySum 	9.301752172391
scalar LocScenario.node[301].nic.phy80211p 	busyTime 	0.0058991919514328
scalar LocScenario.node[301].nic.mac1609_4 	ReceivedUnicastPackets 	0
scalar LocScenario.node[301].nic.mac1609_4 	ReceivedBroadcasts 	309
scalar LocScenario.node[301].nic.mac1609_4 	SentPackets 	54
scalar LocScenario.node[301].nic.mac1609_4 	SNIRLostPackets 	0
scalar LocScenario.node[301].nic.mac1609_4 	RXTXLostPackets 	0
scalar LocScenario.node[301].nic.mac1609_4 	TotalLostPackets 	0
scalar LocScenario.node[301].nic.mac1609_4 	DroppedPacketsInMac 	0
scalar LocScenario.node[301].nic.mac1609_4 	TooLittleTime 	0
scalar LocScenario.node[301].nic.mac1609_4 	TimesIntoBackoff 	54
scalar LocScenario.node[301].nic.mac1609_4 	SlotsBackoff 	78
scalar LocScenario.node[301].nic.mac1609_4 	NumInternalContention 	0
scalar LocScenario.node[301].nic.mac1609_4 	totalBusyTime 	0.037806
scalar LocScenario.node[301].veinsmobility 	startTime 	1500.1
scalar LocScenario.node[301].veinsmobility 	totalTime 	5.4
scalar LocScenario.node[301].veinsmobility 	stopTime 	1505.5475257399
scalar LocScenario.node[301].veinsmobility 	minSpeed 	10.450043681508
scalar LocScenario.node[301].veinsmobility 	maxSpeed 	10.497321326844
scalar LocScenario.node[301].veinsmobility 	totalDistance 	56.738659702257
scalar LocScenario.node[301].veinsmobility 	totalCO2Emission 	9.1025608523152
scalar LocScenario.outagesServer.appl 	generatedWSMs 	0
scalar LocScenario.outagesServer.appl 	receivedWSMs 	0
scalar LocScenario.outagesServer.appl 	generatedBSMs 	0
scalar LocScenario.outagesServer.appl 	receivedBSMs 	0
scalar LocScenario.outagesServer.appl 	generatedWSAs 	0
scalar LocScenario.outagesServer.appl 	receivedWSAs 	0
scalar LocScenario.outagesServer.nic.phy80211p 	busyTime 	0
scalar LocScenario.outagesServer.nic.mac1609_4 	ReceivedUnicastPackets 	0
scalar LocScenario.outagesServer.nic.mac1609_4 	ReceivedBroadcasts 	0
scalar LocScenario.outagesServer.nic.mac1609_4 	SentPackets 	0
scalar LocScenario.outagesServer.nic.mac1609_4 	SNIRLostPackets 	0
scalar LocScenario.outagesServer.nic.mac1609_4 	RXTXLostPackets 	0
scalar LocScenario.outagesServer.nic.mac1609_4 	TotalLostPackets 	0
scalar LocScenario.outagesServer.nic.mac1609_4 	DroppedPacketsInMac 	0
scalar LocScenario.outagesServer.nic.mac1609_4 	TooLittleTime 	0
scalar LocScenario.outagesServer.nic.mac1609_4 	TimesIntoBackoff 	0
scalar LocScenario.outagesServer.nic.mac1609_4 	SlotsBackoff 	0
scalar LocScenario.outagesServer.nic.mac1609_4 	NumInternalContention 	0
scalar LocScenario.outagesServer.nic.mac1609_4 	totalBusyTime 	0
