version 2
run DMAT-72-20171113-00:51:33-28845
attr configname DMAT
attr datetime 20171113-00:51:33
attr experiment DMAT
attr hops 3
attr inifile omnetpp.ini
attr iterationvars "$logVehPeriod=10, $hops=3"
attr iterationvars2 "$logVehPeriod=10, $hops=3, $repetition=2"
attr logVehPeriod 10
attr measurement "$logVehPeriod=10, $hops=3"
attr network com.liborio.cooppos.LocScenario
attr processid 28845
attr repetition 2
attr replication #2
attr resultdir results
attr runnumber 72
attr seedset 2
param **.coreDebug false
param **.debug false
param *.annotations.draw false
param *.connectionManager.drawMaxIntfDist false
param *.connectionManager.maxInterfDist 600m
param *.connectionManager.sendDirect true
param *.manager.autoShutdown true
param *.manager.host "\"localhost\""
param *.manager.launchConfig "xmldoc(\"dmat-\"+string(${logVehPeriod = 15, 10, 5, 3, 1})+\".launchd.xml\")"
param *.manager.port 9999
param *.manager.updateInterval 0.1s
param *.node[*].appl.beaconInterval 0.1s
param *.node[*].appl.dataOnSch false
param *.node[*].appl.headerLength "80 bit"
param *.node[*].appl.hops "${hops = 1, 2, 3, 4, 5}"
param *.node[*].appl.logVehPeriod ${logVehPeriod}
param *.node[*].appl.seedPar ${repetition}
param *.node[*].appl.sendBeacons true
param *.node[*].applType "\"Communication\""
param *.node[*].nic.mac1609_4.bitrate 6Mbps
param *.node[*].nic.mac1609_4.txPower 20mW
param *.node[*].nic.mac1609_4.useServiceChannel false
param *.node[*].nic.phy80211p.analogueModels "xmldoc(\"config.xml\")"
param *.node[*].nic.phy80211p.antenna "xmldoc(\"antenna.xml\", \"/root/Antenna[@id='monopole']\")"
param *.node[*].nic.phy80211p.decider "xmldoc(\"config.xml\")"
param *.node[*].nic.phy80211p.sensitivity -84.39dBm
param *.node[*].nic.phy80211p.thermalNoise -110dBm
param *.node[*].nic.phy80211p.usePropagationDelay true
param *.node[*].nic.phy80211p.useThermalNoise true
param *.node[*].veinsmobility.x 0
param *.node[*].veinsmobility.y 0
param *.node[*].veinsmobility.z 1.895
param *.node[*].veinsmobilityType.debug true
param *.outagesServer.appl.beaconInterval 0.1s
param *.outagesServer.appl.beaconPriority 3
param *.outagesServer.appl.dataOnSch false
param *.outagesServer.appl.dataPriority 2
param *.outagesServer.appl.headerLength "80 bit"
param *.outagesServer.appl.sendBeacons false
param *.outagesServer.applType "\"Outages\""
param *.outagesServer.mobility.x 5000.0
param *.outagesServer.mobility.y 5000.0
param *.outagesServer.mobility.z 3
param *.outagesServer.nic.mac1609_4.bitrate 6Mbps
param *.outagesServer.nic.mac1609_4.txPower 20mW
param *.outagesServer.nic.mac1609_4.useServiceChannel false
param *.outagesServer.nic.phy80211p.analogueModels "xmldoc(\"config.xml\")"
param *.outagesServer.nic.phy80211p.antenna "xmldoc(\"antenna.xml\", \"/root/Antenna[@id='monopole']\")"
param *.outagesServer.nic.phy80211p.decider "xmldoc(\"config.xml\")"
param *.outagesServer.nic.phy80211p.sensitivity -84.39dBm
param *.outagesServer.nic.phy80211p.thermalNoise -110dBm
param *.outagesServer.nic.phy80211p.usePropagationDelay true
param *.outagesServer.nic.phy80211p.useThermalNoise true
param *.playgroundSizeX 20000m
param *.playgroundSizeY 20000m
param *.playgroundSizeZ 50m

scalar . 	hops 	3
scalar . 	logVehPeriod 	10
scalar LocScenario.node[1].appl 	generatedWSMs 	0
scalar LocScenario.node[1].appl 	receivedWSMs 	0
scalar LocScenario.node[1].appl 	generatedBSMs 	2040
scalar LocScenario.node[1].appl 	receivedBSMs 	7753
scalar LocScenario.node[1].appl 	generatedWSAs 	0
scalar LocScenario.node[1].appl 	receivedWSAs 	0
scalar LocScenario.node[1].appl 	rmseSUMGPS 	571052.85747713
scalar LocScenario.node[1].appl 	rmseSUMCP 	568418.12826202
scalar LocScenario.node[1].appl 	delaySum 	0.92606836452341
scalar LocScenario.node[1].nic.phy80211p 	busyTime 	0.0040692549019606
scalar LocScenario.node[1].nic.mac1609_4 	ReceivedUnicastPackets 	0
scalar LocScenario.node[1].nic.mac1609_4 	ReceivedBroadcasts 	7753
scalar LocScenario.node[1].nic.mac1609_4 	SentPackets 	2040
scalar LocScenario.node[1].nic.mac1609_4 	SNIRLostPackets 	229
scalar LocScenario.node[1].nic.mac1609_4 	RXTXLostPackets 	0
scalar LocScenario.node[1].nic.mac1609_4 	TotalLostPackets 	229
scalar LocScenario.node[1].nic.mac1609_4 	DroppedPacketsInMac 	0
scalar LocScenario.node[1].nic.mac1609_4 	TooLittleTime 	0
scalar LocScenario.node[1].nic.mac1609_4 	TimesIntoBackoff 	2040
scalar LocScenario.node[1].nic.mac1609_4 	SlotsBackoff 	3110
scalar LocScenario.node[1].nic.mac1609_4 	NumInternalContention 	0
scalar LocScenario.node[1].nic.mac1609_4 	totalBusyTime 	1.033616
scalar LocScenario.node[1].veinsmobility 	startTime 	0.1
scalar LocScenario.node[1].veinsmobility 	totalTime 	203.9
scalar LocScenario.node[1].veinsmobility 	stopTime 	204.1
scalar LocScenario.node[1].veinsmobility 	minSpeed 	10.450013505062
scalar LocScenario.node[1].veinsmobility 	maxSpeed 	10.499973469623
scalar LocScenario.node[1].veinsmobility 	totalDistance 	2138.6894750591
scalar LocScenario.node[1].veinsmobility 	totalCO2Emission 	351.65043387935
scalar LocScenario.node[3].appl 	generatedWSMs 	0
scalar LocScenario.node[3].appl 	receivedWSMs 	0
scalar LocScenario.node[3].appl 	generatedBSMs 	2040
scalar LocScenario.node[3].appl 	receivedBSMs 	9969
scalar LocScenario.node[3].appl 	generatedWSAs 	0
scalar LocScenario.node[3].appl 	receivedWSAs 	0
scalar LocScenario.node[3].appl 	rmseSUMGPS 	1000359.1092842
scalar LocScenario.node[3].appl 	rmseSUMCP 	541311.45782902
scalar LocScenario.node[3].appl 	delaySum 	1.1678362662767
scalar LocScenario.node[3].nic.phy80211p 	busyTime 	0.0051790980392157
scalar LocScenario.node[3].nic.mac1609_4 	ReceivedUnicastPackets 	0
scalar LocScenario.node[3].nic.mac1609_4 	ReceivedBroadcasts 	9969
scalar LocScenario.node[3].nic.mac1609_4 	SentPackets 	2040
scalar LocScenario.node[3].nic.mac1609_4 	SNIRLostPackets 	190
scalar LocScenario.node[3].nic.mac1609_4 	RXTXLostPackets 	0
scalar LocScenario.node[3].nic.mac1609_4 	TotalLostPackets 	190
scalar LocScenario.node[3].nic.mac1609_4 	DroppedPacketsInMac 	0
scalar LocScenario.node[3].nic.mac1609_4 	TooLittleTime 	0
scalar LocScenario.node[3].nic.mac1609_4 	TimesIntoBackoff 	2040
scalar LocScenario.node[3].nic.mac1609_4 	SlotsBackoff 	3044
scalar LocScenario.node[3].nic.mac1609_4 	NumInternalContention 	0
scalar LocScenario.node[3].nic.mac1609_4 	totalBusyTime 	1.260128
scalar LocScenario.node[3].veinsmobility 	startTime 	10.1
scalar LocScenario.node[3].veinsmobility 	totalTime 	203.9
scalar LocScenario.node[3].veinsmobility 	stopTime 	214.1
scalar LocScenario.node[3].veinsmobility 	minSpeed 	10.450006971019
scalar LocScenario.node[3].veinsmobility 	maxSpeed 	10.499916002247
scalar LocScenario.node[3].veinsmobility 	totalDistance 	2133.8255714583
scalar LocScenario.node[3].veinsmobility 	totalCO2Emission 	351.53531930237
scalar LocScenario.node[5].appl 	generatedWSMs 	0
scalar LocScenario.node[5].appl 	receivedWSMs 	0
scalar LocScenario.node[5].appl 	generatedBSMs 	2040
scalar LocScenario.node[5].appl 	receivedBSMs 	11955
scalar LocScenario.node[5].appl 	generatedWSAs 	0
scalar LocScenario.node[5].appl 	receivedWSAs 	0
scalar LocScenario.node[5].appl 	rmseSUMGPS 	1040566.6650606
scalar LocScenario.node[5].appl 	rmseSUMCP 	12336950.330433
scalar LocScenario.node[5].appl 	delaySum 	1.3520797234144
scalar LocScenario.node[5].nic.phy80211p 	busyTime 	0.0061681176470598
scalar LocScenario.node[5].nic.mac1609_4 	ReceivedUnicastPackets 	0
scalar LocScenario.node[5].nic.mac1609_4 	ReceivedBroadcasts 	11955
scalar LocScenario.node[5].nic.mac1609_4 	SentPackets 	2040
scalar LocScenario.node[5].nic.mac1609_4 	SNIRLostPackets 	144
scalar LocScenario.node[5].nic.mac1609_4 	RXTXLostPackets 	0
scalar LocScenario.node[5].nic.mac1609_4 	TotalLostPackets 	144
scalar LocScenario.node[5].nic.mac1609_4 	DroppedPacketsInMac 	0
scalar LocScenario.node[5].nic.mac1609_4 	TooLittleTime 	0
scalar LocScenario.node[5].nic.mac1609_4 	TimesIntoBackoff 	2250
scalar LocScenario.node[5].nic.mac1609_4 	SlotsBackoff 	3314
scalar LocScenario.node[5].nic.mac1609_4 	NumInternalContention 	0
scalar LocScenario.node[5].nic.mac1609_4 	totalBusyTime 	1.465408267606
scalar LocScenario.node[5].veinsmobility 	startTime 	20.1
scalar LocScenario.node[5].veinsmobility 	totalTime 	203.9
scalar LocScenario.node[5].veinsmobility 	stopTime 	224.1
scalar LocScenario.node[5].veinsmobility 	minSpeed 	10.450065207796
scalar LocScenario.node[5].veinsmobility 	maxSpeed 	10.499973570451
scalar LocScenario.node[5].veinsmobility 	totalDistance 	2133.8111711329
scalar LocScenario.node[5].veinsmobility 	totalCO2Emission 	351.51448423234
scalar LocScenario.node[0].appl 	generatedWSMs 	0
scalar LocScenario.node[0].appl 	receivedWSMs 	0
scalar LocScenario.node[0].appl 	generatedBSMs 	2281
scalar LocScenario.node[0].appl 	receivedBSMs 	8734
scalar LocScenario.node[0].appl 	generatedWSAs 	0
scalar LocScenario.node[0].appl 	receivedWSAs 	0
scalar LocScenario.node[0].appl 	rmseSUMGPS 	754506.49668015
scalar LocScenario.node[0].appl 	rmseSUMCP 	445588.99744927
scalar LocScenario.node[0].appl 	delaySum 	0.99678922530656
scalar LocScenario.node[0].nic.phy80211p 	busyTime 	0.003982183252959
scalar LocScenario.node[0].nic.mac1609_4 	ReceivedUnicastPackets 	0
scalar LocScenario.node[0].nic.mac1609_4 	ReceivedBroadcasts 	8734
scalar LocScenario.node[0].nic.mac1609_4 	SentPackets 	2281
scalar LocScenario.node[0].nic.mac1609_4 	SNIRLostPackets 	0
scalar LocScenario.node[0].nic.mac1609_4 	RXTXLostPackets 	0
scalar LocScenario.node[0].nic.mac1609_4 	TotalLostPackets 	0
scalar LocScenario.node[0].nic.mac1609_4 	DroppedPacketsInMac 	0
scalar LocScenario.node[0].nic.mac1609_4 	TooLittleTime 	0
scalar LocScenario.node[0].nic.mac1609_4 	TimesIntoBackoff 	2281
scalar LocScenario.node[0].nic.mac1609_4 	SlotsBackoff 	3370
scalar LocScenario.node[0].nic.mac1609_4 	NumInternalContention 	0
scalar LocScenario.node[0].nic.mac1609_4 	totalBusyTime 	1.147841
scalar LocScenario.node[0].veinsmobility 	startTime 	0.1
scalar LocScenario.node[0].veinsmobility 	totalTime 	228
scalar LocScenario.node[0].veinsmobility 	stopTime 	228.2
scalar LocScenario.node[0].veinsmobility 	minSpeed 	10.450004398031
scalar LocScenario.node[0].veinsmobility 	maxSpeed 	10.499964718393
scalar LocScenario.node[0].veinsmobility 	totalDistance 	2388.9427317053
scalar LocScenario.node[0].veinsmobility 	totalCO2Emission 	394.01926130206
scalar LocScenario.node[7].appl 	generatedWSMs 	0
scalar LocScenario.node[7].appl 	receivedWSMs 	0
scalar LocScenario.node[7].appl 	generatedBSMs 	2040
scalar LocScenario.node[7].appl 	receivedBSMs 	12224
scalar LocScenario.node[7].appl 	generatedWSAs 	0
scalar LocScenario.node[7].appl 	receivedWSAs 	0
scalar LocScenario.node[7].appl 	rmseSUMGPS 	841213.52196086
scalar LocScenario.node[7].appl 	rmseSUMCP 	8962694.7908978
scalar LocScenario.node[7].appl 	delaySum 	1.410866548404
scalar LocScenario.node[7].nic.phy80211p 	busyTime 	0.0062884313725501
scalar LocScenario.node[7].nic.mac1609_4 	ReceivedUnicastPackets 	0
scalar LocScenario.node[7].nic.mac1609_4 	ReceivedBroadcasts 	12224
scalar LocScenario.node[7].nic.mac1609_4 	SentPackets 	2040
scalar LocScenario.node[7].nic.mac1609_4 	SNIRLostPackets 	111
scalar LocScenario.node[7].nic.mac1609_4 	RXTXLostPackets 	0
scalar LocScenario.node[7].nic.mac1609_4 	TotalLostPackets 	111
scalar LocScenario.node[7].nic.mac1609_4 	DroppedPacketsInMac 	0
scalar LocScenario.node[7].nic.mac1609_4 	TooLittleTime 	0
scalar LocScenario.node[7].nic.mac1609_4 	TimesIntoBackoff 	2040
scalar LocScenario.node[7].nic.mac1609_4 	SlotsBackoff 	3111
scalar LocScenario.node[7].nic.mac1609_4 	NumInternalContention 	0
scalar LocScenario.node[7].nic.mac1609_4 	totalBusyTime 	1.491528
scalar LocScenario.node[7].veinsmobility 	startTime 	30.1
scalar LocScenario.node[7].veinsmobility 	totalTime 	203.9
scalar LocScenario.node[7].veinsmobility 	stopTime 	234.1
scalar LocScenario.node[7].veinsmobility 	minSpeed 	10.450044352736
scalar LocScenario.node[7].veinsmobility 	maxSpeed 	10.499980011256
scalar LocScenario.node[7].veinsmobility 	totalDistance 	2133.8473645899
scalar LocScenario.node[7].veinsmobility 	totalCO2Emission 	352.32609774632
scalar LocScenario.node[2].appl 	generatedWSMs 	0
scalar LocScenario.node[2].appl 	receivedWSMs 	0
scalar LocScenario.node[2].appl 	generatedBSMs 	2281
scalar LocScenario.node[2].appl 	receivedBSMs 	11090
scalar LocScenario.node[2].appl 	generatedWSAs 	0
scalar LocScenario.node[2].appl 	receivedWSAs 	0
scalar LocScenario.node[2].appl 	rmseSUMGPS 	22383.144911953
scalar LocScenario.node[2].appl 	rmseSUMCP 	346813.64028791
scalar LocScenario.node[2].appl 	delaySum 	1.2562832218578
scalar LocScenario.node[2].nic.phy80211p 	busyTime 	0.0050791758000881
scalar LocScenario.node[2].nic.mac1609_4 	ReceivedUnicastPackets 	0
scalar LocScenario.node[2].nic.mac1609_4 	ReceivedBroadcasts 	11090
scalar LocScenario.node[2].nic.mac1609_4 	SentPackets 	2281
scalar LocScenario.node[2].nic.mac1609_4 	SNIRLostPackets 	50
scalar LocScenario.node[2].nic.mac1609_4 	RXTXLostPackets 	0
scalar LocScenario.node[2].nic.mac1609_4 	TotalLostPackets 	50
scalar LocScenario.node[2].nic.mac1609_4 	DroppedPacketsInMac 	0
scalar LocScenario.node[2].nic.mac1609_4 	TooLittleTime 	0
scalar LocScenario.node[2].nic.mac1609_4 	TimesIntoBackoff 	2281
scalar LocScenario.node[2].nic.mac1609_4 	SlotsBackoff 	3478
scalar LocScenario.node[2].nic.mac1609_4 	NumInternalContention 	0
scalar LocScenario.node[2].nic.mac1609_4 	totalBusyTime 	1.394945
scalar LocScenario.node[2].veinsmobility 	startTime 	10.1
scalar LocScenario.node[2].veinsmobility 	totalTime 	228
scalar LocScenario.node[2].veinsmobility 	stopTime 	238.2
scalar LocScenario.node[2].veinsmobility 	minSpeed 	10.450014516956
scalar LocScenario.node[2].veinsmobility 	maxSpeed 	10.499977153726
scalar LocScenario.node[2].veinsmobility 	totalDistance 	2392.3641165756
scalar LocScenario.node[2].veinsmobility 	totalCO2Emission 	393.42576133696
scalar LocScenario.node[9].appl 	generatedWSMs 	0
scalar LocScenario.node[9].appl 	receivedWSMs 	0
scalar LocScenario.node[9].appl 	generatedBSMs 	2040
scalar LocScenario.node[9].appl 	receivedBSMs 	12283
scalar LocScenario.node[9].appl 	generatedWSAs 	0
scalar LocScenario.node[9].appl 	receivedWSAs 	0
scalar LocScenario.node[9].appl 	rmseSUMGPS 	689906.64237215
scalar LocScenario.node[9].appl 	rmseSUMCP 	3636269.9212655
scalar LocScenario.node[9].appl 	delaySum 	1.4115447581495
scalar LocScenario.node[9].nic.phy80211p 	busyTime 	0.0063944705882365
scalar LocScenario.node[9].nic.mac1609_4 	ReceivedUnicastPackets 	0
scalar LocScenario.node[9].nic.mac1609_4 	ReceivedBroadcasts 	12283
scalar LocScenario.node[9].nic.mac1609_4 	SentPackets 	2040
scalar LocScenario.node[9].nic.mac1609_4 	SNIRLostPackets 	260
scalar LocScenario.node[9].nic.mac1609_4 	RXTXLostPackets 	0
scalar LocScenario.node[9].nic.mac1609_4 	TotalLostPackets 	260
scalar LocScenario.node[9].nic.mac1609_4 	DroppedPacketsInMac 	0
scalar LocScenario.node[9].nic.mac1609_4 	TooLittleTime 	0
scalar LocScenario.node[9].nic.mac1609_4 	TimesIntoBackoff 	2040
scalar LocScenario.node[9].nic.mac1609_4 	SlotsBackoff 	2972
scalar LocScenario.node[9].nic.mac1609_4 	NumInternalContention 	0
scalar LocScenario.node[9].nic.mac1609_4 	totalBusyTime 	1.507648
scalar LocScenario.node[9].veinsmobility 	startTime 	40.1
scalar LocScenario.node[9].veinsmobility 	totalTime 	203.9
scalar LocScenario.node[9].veinsmobility 	stopTime 	244.1
scalar LocScenario.node[9].veinsmobility 	minSpeed 	10.4500119237
scalar LocScenario.node[9].veinsmobility 	maxSpeed 	10.499998482375
scalar LocScenario.node[9].veinsmobility 	totalDistance 	2133.7948308206
scalar LocScenario.node[9].veinsmobility 	totalCO2Emission 	351.56549865681
scalar LocScenario.node[4].appl 	generatedWSMs 	0
scalar LocScenario.node[4].appl 	receivedWSMs 	0
scalar LocScenario.node[4].appl 	generatedBSMs 	2281
scalar LocScenario.node[4].appl 	receivedBSMs 	13106
scalar LocScenario.node[4].appl 	generatedWSAs 	0
scalar LocScenario.node[4].appl 	receivedWSAs 	0
scalar LocScenario.node[4].appl 	rmseSUMGPS 	1023169.0947691
scalar LocScenario.node[4].appl 	rmseSUMCP 	930409.40005717
scalar LocScenario.node[4].appl 	delaySum 	1.4779932211935
scalar LocScenario.node[4].nic.phy80211p 	busyTime 	0.0060936431389756
scalar LocScenario.node[4].nic.mac1609_4 	ReceivedUnicastPackets 	0
scalar LocScenario.node[4].nic.mac1609_4 	ReceivedBroadcasts 	13106
scalar LocScenario.node[4].nic.mac1609_4 	SentPackets 	2281
scalar LocScenario.node[4].nic.mac1609_4 	SNIRLostPackets 	259
scalar LocScenario.node[4].nic.mac1609_4 	RXTXLostPackets 	0
scalar LocScenario.node[4].nic.mac1609_4 	TotalLostPackets 	259
scalar LocScenario.node[4].nic.mac1609_4 	DroppedPacketsInMac 	0
scalar LocScenario.node[4].nic.mac1609_4 	TooLittleTime 	0
scalar LocScenario.node[4].nic.mac1609_4 	TimesIntoBackoff 	2281
scalar LocScenario.node[4].nic.mac1609_4 	SlotsBackoff 	3367
scalar LocScenario.node[4].nic.mac1609_4 	NumInternalContention 	0
scalar LocScenario.node[4].nic.mac1609_4 	totalBusyTime 	1.619259995242
scalar LocScenario.node[4].veinsmobility 	startTime 	20.1
scalar LocScenario.node[4].veinsmobility 	totalTime 	228
scalar LocScenario.node[4].veinsmobility 	stopTime 	248.2
scalar LocScenario.node[4].veinsmobility 	minSpeed 	10.450001929887
scalar LocScenario.node[4].veinsmobility 	maxSpeed 	10.499987302197
scalar LocScenario.node[4].veinsmobility 	totalDistance 	2388.7001980897
scalar LocScenario.node[4].veinsmobility 	totalCO2Emission 	394.01279450112
scalar LocScenario.node[11].appl 	generatedWSMs 	0
scalar LocScenario.node[11].appl 	receivedWSMs 	0
scalar LocScenario.node[11].appl 	generatedBSMs 	2040
scalar LocScenario.node[11].appl 	receivedBSMs 	12596
scalar LocScenario.node[11].appl 	generatedWSAs 	0
scalar LocScenario.node[11].appl 	receivedWSAs 	0
scalar LocScenario.node[11].appl 	rmseSUMGPS 	711407.39964951
scalar LocScenario.node[11].appl 	rmseSUMCP 	1607417.3951366
scalar LocScenario.node[11].appl 	delaySum 	1.4302032496484
scalar LocScenario.node[11].nic.phy80211p 	busyTime 	0.0065061176470602
scalar LocScenario.node[11].nic.mac1609_4 	ReceivedUnicastPackets 	0
scalar LocScenario.node[11].nic.mac1609_4 	ReceivedBroadcasts 	12596
scalar LocScenario.node[11].nic.mac1609_4 	SentPackets 	2040
scalar LocScenario.node[11].nic.mac1609_4 	SNIRLostPackets 	166
scalar LocScenario.node[11].nic.mac1609_4 	RXTXLostPackets 	0
scalar LocScenario.node[11].nic.mac1609_4 	TotalLostPackets 	166
scalar LocScenario.node[11].nic.mac1609_4 	DroppedPacketsInMac 	0
scalar LocScenario.node[11].nic.mac1609_4 	TooLittleTime 	0
scalar LocScenario.node[11].nic.mac1609_4 	TimesIntoBackoff 	2040
scalar LocScenario.node[11].nic.mac1609_4 	SlotsBackoff 	3071
scalar LocScenario.node[11].nic.mac1609_4 	NumInternalContention 	0
scalar LocScenario.node[11].nic.mac1609_4 	totalBusyTime 	1.5324
scalar LocScenario.node[11].veinsmobility 	startTime 	50.1
scalar LocScenario.node[11].veinsmobility 	totalTime 	203.9
scalar LocScenario.node[11].veinsmobility 	stopTime 	254.1
scalar LocScenario.node[11].veinsmobility 	minSpeed 	10.450035232853
scalar LocScenario.node[11].veinsmobility 	maxSpeed 	10.499943420792
scalar LocScenario.node[11].veinsmobility 	totalDistance 	2133.873559288
scalar LocScenario.node[11].veinsmobility 	totalCO2Emission 	351.88259190575
scalar LocScenario.node[6].appl 	generatedWSMs 	0
scalar LocScenario.node[6].appl 	receivedWSMs 	0
scalar LocScenario.node[6].appl 	generatedBSMs 	2281
scalar LocScenario.node[6].appl 	receivedBSMs 	13591
scalar LocScenario.node[6].appl 	generatedWSAs 	0
scalar LocScenario.node[6].appl 	receivedWSAs 	0
scalar LocScenario.node[6].appl 	rmseSUMGPS 	22267.044124804
scalar LocScenario.node[6].appl 	rmseSUMCP 	820353.39566297
scalar LocScenario.node[6].appl 	delaySum 	1.5281139741706
scalar LocScenario.node[6].nic.phy80211p 	busyTime 	0.0061966856641839
scalar LocScenario.node[6].nic.mac1609_4 	ReceivedUnicastPackets 	0
scalar LocScenario.node[6].nic.mac1609_4 	ReceivedBroadcasts 	13591
scalar LocScenario.node[6].nic.mac1609_4 	SentPackets 	2281
scalar LocScenario.node[6].nic.mac1609_4 	SNIRLostPackets 	0
scalar LocScenario.node[6].nic.mac1609_4 	RXTXLostPackets 	0
scalar LocScenario.node[6].nic.mac1609_4 	TotalLostPackets 	0
scalar LocScenario.node[6].nic.mac1609_4 	DroppedPacketsInMac 	0
scalar LocScenario.node[6].nic.mac1609_4 	TooLittleTime 	0
scalar LocScenario.node[6].nic.mac1609_4 	TimesIntoBackoff 	2281
scalar LocScenario.node[6].nic.mac1609_4 	SlotsBackoff 	3485
scalar LocScenario.node[6].nic.mac1609_4 	NumInternalContention 	0
scalar LocScenario.node[6].nic.mac1609_4 	totalBusyTime 	1.652969
scalar LocScenario.node[6].veinsmobility 	startTime 	30.1
scalar LocScenario.node[6].veinsmobility 	totalTime 	228
scalar LocScenario.node[6].veinsmobility 	stopTime 	258.2
scalar LocScenario.node[6].veinsmobility 	minSpeed 	10.450011199352
scalar LocScenario.node[6].veinsmobility 	maxSpeed 	10.499984657182
scalar LocScenario.node[6].veinsmobility 	totalDistance 	2394.6877066847
scalar LocScenario.node[6].veinsmobility 	totalCO2Emission 	393.56574270718
scalar LocScenario.node[13].appl 	generatedWSMs 	0
scalar LocScenario.node[13].appl 	receivedWSMs 	0
scalar LocScenario.node[13].appl 	generatedBSMs 	2040
scalar LocScenario.node[13].appl 	receivedBSMs 	12876
scalar LocScenario.node[13].appl 	generatedWSAs 	0
scalar LocScenario.node[13].appl 	receivedWSAs 	0
scalar LocScenario.node[13].appl 	rmseSUMGPS 	721986.77696303
scalar LocScenario.node[13].appl 	rmseSUMCP 	1179326.0216252
scalar LocScenario.node[13].appl 	delaySum 	1.4612659429423
scalar LocScenario.node[13].nic.phy80211p 	busyTime 	0.0066111372549034
scalar LocScenario.node[13].nic.mac1609_4 	ReceivedUnicastPackets 	0
scalar LocScenario.node[13].nic.mac1609_4 	ReceivedBroadcasts 	12876
scalar LocScenario.node[13].nic.mac1609_4 	SentPackets 	2040
scalar LocScenario.node[13].nic.mac1609_4 	SNIRLostPackets 	92
scalar LocScenario.node[13].nic.mac1609_4 	RXTXLostPackets 	0
scalar LocScenario.node[13].nic.mac1609_4 	TotalLostPackets 	92
scalar LocScenario.node[13].nic.mac1609_4 	DroppedPacketsInMac 	0
scalar LocScenario.node[13].nic.mac1609_4 	TooLittleTime 	0
scalar LocScenario.node[13].nic.mac1609_4 	TimesIntoBackoff 	2040
scalar LocScenario.node[13].nic.mac1609_4 	SlotsBackoff 	3155
scalar LocScenario.node[13].nic.mac1609_4 	NumInternalContention 	0
scalar LocScenario.node[13].nic.mac1609_4 	totalBusyTime 	1.558088
scalar LocScenario.node[13].veinsmobility 	startTime 	60.1
scalar LocScenario.node[13].veinsmobility 	totalTime 	203.9
scalar LocScenario.node[13].veinsmobility 	stopTime 	264.1
scalar LocScenario.node[13].veinsmobility 	minSpeed 	10.45002425526
scalar LocScenario.node[13].veinsmobility 	maxSpeed 	10.499987474573
scalar LocScenario.node[13].veinsmobility 	totalDistance 	2138.8020344686
scalar LocScenario.node[13].veinsmobility 	totalCO2Emission 	351.72886551776
scalar LocScenario.node[8].appl 	generatedWSMs 	0
scalar LocScenario.node[8].appl 	receivedWSMs 	0
scalar LocScenario.node[8].appl 	generatedBSMs 	2281
scalar LocScenario.node[8].appl 	receivedBSMs 	13809
scalar LocScenario.node[8].appl 	generatedWSAs 	0
scalar LocScenario.node[8].appl 	receivedWSAs 	0
scalar LocScenario.node[8].appl 	rmseSUMGPS 	96690.140698453
scalar LocScenario.node[8].appl 	rmseSUMCP 	870731.96068958
scalar LocScenario.node[8].appl 	delaySum 	2.5196862748883e+180
scalar LocScenario.node[8].nic.phy80211p 	busyTime 	0.0062960806663761
scalar LocScenario.node[8].nic.mac1609_4 	ReceivedUnicastPackets 	0
scalar LocScenario.node[8].nic.mac1609_4 	ReceivedBroadcasts 	13809
scalar LocScenario.node[8].nic.mac1609_4 	SentPackets 	2281
scalar LocScenario.node[8].nic.mac1609_4 	SNIRLostPackets 	0
scalar LocScenario.node[8].nic.mac1609_4 	RXTXLostPackets 	0
scalar LocScenario.node[8].nic.mac1609_4 	TotalLostPackets 	0
scalar LocScenario.node[8].nic.mac1609_4 	DroppedPacketsInMac 	0
scalar LocScenario.node[8].nic.mac1609_4 	TooLittleTime 	0
scalar LocScenario.node[8].nic.mac1609_4 	TimesIntoBackoff 	2281
scalar LocScenario.node[8].nic.mac1609_4 	SlotsBackoff 	3482
scalar LocScenario.node[8].nic.mac1609_4 	NumInternalContention 	0
scalar LocScenario.node[8].nic.mac1609_4 	totalBusyTime 	1.675641
scalar LocScenario.node[8].veinsmobility 	startTime 	40.1
scalar LocScenario.node[8].veinsmobility 	totalTime 	228
scalar LocScenario.node[8].veinsmobility 	stopTime 	268.2
scalar LocScenario.node[8].veinsmobility 	minSpeed 	10.45002250101
scalar LocScenario.node[8].veinsmobility 	maxSpeed 	10.499996128422
scalar LocScenario.node[8].veinsmobility 	totalDistance 	2392.2317830179
scalar LocScenario.node[8].veinsmobility 	totalCO2Emission 	393.74439839561
scalar LocScenario.node[15].appl 	generatedWSMs 	0
scalar LocScenario.node[15].appl 	receivedWSMs 	0
scalar LocScenario.node[15].appl 	generatedBSMs 	2040
scalar LocScenario.node[15].appl 	receivedBSMs 	13191
scalar LocScenario.node[15].appl 	generatedWSAs 	0
scalar LocScenario.node[15].appl 	receivedWSAs 	0
scalar LocScenario.node[15].appl 	rmseSUMGPS 	1195726.4260752
scalar LocScenario.node[15].appl 	rmseSUMCP 	869930.13024702
scalar LocScenario.node[15].appl 	delaySum 	1.4767733943365
scalar LocScenario.node[15].nic.phy80211p 	busyTime 	0.0067248235294133
scalar LocScenario.node[15].nic.mac1609_4 	ReceivedUnicastPackets 	0
scalar LocScenario.node[15].nic.mac1609_4 	ReceivedBroadcasts 	13191
scalar LocScenario.node[15].nic.mac1609_4 	SentPackets 	2040
scalar LocScenario.node[15].nic.mac1609_4 	SNIRLostPackets 	0
scalar LocScenario.node[15].nic.mac1609_4 	RXTXLostPackets 	0
scalar LocScenario.node[15].nic.mac1609_4 	TotalLostPackets 	0
scalar LocScenario.node[15].nic.mac1609_4 	DroppedPacketsInMac 	0
scalar LocScenario.node[15].nic.mac1609_4 	TooLittleTime 	0
scalar LocScenario.node[15].nic.mac1609_4 	TimesIntoBackoff 	2262
scalar LocScenario.node[15].nic.mac1609_4 	SlotsBackoff 	3324
scalar LocScenario.node[15].nic.mac1609_4 	NumInternalContention 	0
scalar LocScenario.node[15].nic.mac1609_4 	totalBusyTime 	1.586064
scalar LocScenario.node[15].veinsmobility 	startTime 	70.1
scalar LocScenario.node[15].veinsmobility 	totalTime 	203.9
scalar LocScenario.node[15].veinsmobility 	stopTime 	274.1
scalar LocScenario.node[15].veinsmobility 	minSpeed 	10.450019602256
scalar LocScenario.node[15].veinsmobility 	maxSpeed 	10.499951615639
scalar LocScenario.node[15].veinsmobility 	totalDistance 	2138.7602238524
scalar LocScenario.node[15].veinsmobility 	totalCO2Emission 	351.95008386138
scalar LocScenario.node[10].appl 	generatedWSMs 	0
scalar LocScenario.node[10].appl 	receivedWSMs 	0
scalar LocScenario.node[10].appl 	generatedBSMs 	2281
scalar LocScenario.node[10].appl 	receivedBSMs 	14024
scalar LocScenario.node[10].appl 	generatedWSAs 	0
scalar LocScenario.node[10].appl 	receivedWSAs 	0
scalar LocScenario.node[10].appl 	rmseSUMGPS 	43351.442587619
scalar LocScenario.node[10].appl 	rmseSUMCP 	856793.18194685
scalar LocScenario.node[10].appl 	delaySum 	4.294675079441e+18
scalar LocScenario.node[10].nic.phy80211p 	busyTime 	0.0063968434896993
scalar LocScenario.node[10].nic.mac1609_4 	ReceivedUnicastPackets 	0
scalar LocScenario.node[10].nic.mac1609_4 	ReceivedBroadcasts 	14024
scalar LocScenario.node[10].nic.mac1609_4 	SentPackets 	2281
scalar LocScenario.node[10].nic.mac1609_4 	SNIRLostPackets 	6
scalar LocScenario.node[10].nic.mac1609_4 	RXTXLostPackets 	0
scalar LocScenario.node[10].nic.mac1609_4 	TotalLostPackets 	6
scalar LocScenario.node[10].nic.mac1609_4 	DroppedPacketsInMac 	0
scalar LocScenario.node[10].nic.mac1609_4 	TooLittleTime 	0
scalar LocScenario.node[10].nic.mac1609_4 	TimesIntoBackoff 	2281
scalar LocScenario.node[10].nic.mac1609_4 	SlotsBackoff 	3412
scalar LocScenario.node[10].nic.mac1609_4 	NumInternalContention 	0
scalar LocScenario.node[10].nic.mac1609_4 	totalBusyTime 	1.698625
scalar LocScenario.node[10].veinsmobility 	startTime 	50.1
scalar LocScenario.node[10].veinsmobility 	totalTime 	228
scalar LocScenario.node[10].veinsmobility 	stopTime 	278.2
scalar LocScenario.node[10].veinsmobility 	minSpeed 	10.450032327138
scalar LocScenario.node[10].veinsmobility 	maxSpeed 	10.499992552842
scalar LocScenario.node[10].veinsmobility 	totalDistance 	2392.3204182945
scalar LocScenario.node[10].veinsmobility 	totalCO2Emission 	393.55011465574
scalar LocScenario.node[17].appl 	generatedWSMs 	0
scalar LocScenario.node[17].appl 	receivedWSMs 	0
scalar LocScenario.node[17].appl 	generatedBSMs 	2040
scalar LocScenario.node[17].appl 	receivedBSMs 	13342
scalar LocScenario.node[17].appl 	generatedWSAs 	0
scalar LocScenario.node[17].appl 	receivedWSAs 	0
scalar LocScenario.node[17].appl 	rmseSUMGPS 	659652.94665616
scalar LocScenario.node[17].appl 	rmseSUMCP 	825216.02403773
scalar LocScenario.node[17].appl 	delaySum 	1.5156879914661
scalar LocScenario.node[17].nic.phy80211p 	busyTime 	0.006836470588237
scalar LocScenario.node[17].nic.mac1609_4 	ReceivedUnicastPackets 	0
scalar LocScenario.node[17].nic.mac1609_4 	ReceivedBroadcasts 	13342
scalar LocScenario.node[17].nic.mac1609_4 	SentPackets 	2040
scalar LocScenario.node[17].nic.mac1609_4 	SNIRLostPackets 	68
scalar LocScenario.node[17].nic.mac1609_4 	RXTXLostPackets 	0
scalar LocScenario.node[17].nic.mac1609_4 	TotalLostPackets 	68
scalar LocScenario.node[17].nic.mac1609_4 	DroppedPacketsInMac 	0
scalar LocScenario.node[17].nic.mac1609_4 	TooLittleTime 	0
scalar LocScenario.node[17].nic.mac1609_4 	TimesIntoBackoff 	2040
scalar LocScenario.node[17].nic.mac1609_4 	SlotsBackoff 	3158
scalar LocScenario.node[17].nic.mac1609_4 	NumInternalContention 	0
scalar LocScenario.node[17].nic.mac1609_4 	totalBusyTime 	1.605408
scalar LocScenario.node[17].veinsmobility 	startTime 	80.1
scalar LocScenario.node[17].veinsmobility 	totalTime 	203.9
scalar LocScenario.node[17].veinsmobility 	stopTime 	284.1
scalar LocScenario.node[17].veinsmobility 	minSpeed 	10.450031091634
scalar LocScenario.node[17].veinsmobility 	maxSpeed 	10.499966923171
scalar LocScenario.node[17].veinsmobility 	totalDistance 	2138.7106063042
scalar LocScenario.node[17].veinsmobility 	totalCO2Emission 	352.23770279745
scalar LocScenario.node[12].appl 	generatedWSMs 	0
scalar LocScenario.node[12].appl 	receivedWSMs 	0
scalar LocScenario.node[12].appl 	generatedBSMs 	2281
scalar LocScenario.node[12].appl 	receivedBSMs 	14215
scalar LocScenario.node[12].appl 	generatedWSAs 	0
scalar LocScenario.node[12].appl 	receivedWSAs 	0
scalar LocScenario.node[12].appl 	rmseSUMGPS 	36507.194141103
scalar LocScenario.node[12].appl 	rmseSUMCP 	848307.84715511
scalar LocScenario.node[12].appl 	delaySum 	1.5948328906988
scalar LocScenario.node[12].nic.phy80211p 	busyTime 	0.0064962384918914
scalar LocScenario.node[12].nic.mac1609_4 	ReceivedUnicastPackets 	0
scalar LocScenario.node[12].nic.mac1609_4 	ReceivedBroadcasts 	14215
scalar LocScenario.node[12].nic.mac1609_4 	SentPackets 	2281
scalar LocScenario.node[12].nic.mac1609_4 	SNIRLostPackets 	33
scalar LocScenario.node[12].nic.mac1609_4 	RXTXLostPackets 	0
scalar LocScenario.node[12].nic.mac1609_4 	TotalLostPackets 	33
scalar LocScenario.node[12].nic.mac1609_4 	DroppedPacketsInMac 	0
scalar LocScenario.node[12].nic.mac1609_4 	TooLittleTime 	0
scalar LocScenario.node[12].nic.mac1609_4 	TimesIntoBackoff 	2281
scalar LocScenario.node[12].nic.mac1609_4 	SlotsBackoff 	3393
scalar LocScenario.node[12].nic.mac1609_4 	NumInternalContention 	0
scalar LocScenario.node[12].nic.mac1609_4 	totalBusyTime 	1.721297
scalar LocScenario.node[12].veinsmobility 	startTime 	60.1
scalar LocScenario.node[12].veinsmobility 	totalTime 	228
scalar LocScenario.node[12].veinsmobility 	stopTime 	288.2
scalar LocScenario.node[12].veinsmobility 	minSpeed 	10.450022650801
scalar LocScenario.node[12].veinsmobility 	maxSpeed 	10.499961681815
scalar LocScenario.node[12].veinsmobility 	totalDistance 	2394.6763171985
scalar LocScenario.node[12].veinsmobility 	totalCO2Emission 	393.37740561776
scalar LocScenario.node[19].appl 	generatedWSMs 	0
scalar LocScenario.node[19].appl 	receivedWSMs 	0
scalar LocScenario.node[19].appl 	generatedBSMs 	2040
scalar LocScenario.node[19].appl 	receivedBSMs 	13524
scalar LocScenario.node[19].appl 	generatedWSAs 	0
scalar LocScenario.node[19].appl 	receivedWSAs 	0
scalar LocScenario.node[19].appl 	rmseSUMGPS 	1642363.9687019
scalar LocScenario.node[19].appl 	rmseSUMCP 	655347.33366223
scalar LocScenario.node[19].appl 	delaySum 	1.5415937215889
scalar LocScenario.node[19].nic.phy80211p 	busyTime 	0.0069521960784332
scalar LocScenario.node[19].nic.mac1609_4 	ReceivedUnicastPackets 	0
scalar LocScenario.node[19].nic.mac1609_4 	ReceivedBroadcasts 	13524
scalar LocScenario.node[19].nic.mac1609_4 	SentPackets 	2040
scalar LocScenario.node[19].nic.mac1609_4 	SNIRLostPackets 	113
scalar LocScenario.node[19].nic.mac1609_4 	RXTXLostPackets 	0
scalar LocScenario.node[19].nic.mac1609_4 	TotalLostPackets 	113
scalar LocScenario.node[19].nic.mac1609_4 	DroppedPacketsInMac 	0
scalar LocScenario.node[19].nic.mac1609_4 	TooLittleTime 	0
scalar LocScenario.node[19].nic.mac1609_4 	TimesIntoBackoff 	2040
scalar LocScenario.node[19].nic.mac1609_4 	SlotsBackoff 	3032
scalar LocScenario.node[19].nic.mac1609_4 	NumInternalContention 	0
scalar LocScenario.node[19].nic.mac1609_4 	totalBusyTime 	1.625792
scalar LocScenario.node[19].veinsmobility 	startTime 	90.1
scalar LocScenario.node[19].veinsmobility 	totalTime 	203.9
scalar LocScenario.node[19].veinsmobility 	stopTime 	294.1
scalar LocScenario.node[19].veinsmobility 	minSpeed 	10.450011656003
scalar LocScenario.node[19].veinsmobility 	maxSpeed 	10.499995058903
scalar LocScenario.node[19].veinsmobility 	totalDistance 	2133.7920250199
scalar LocScenario.node[19].veinsmobility 	totalCO2Emission 	352.72145378365
scalar LocScenario.node[14].appl 	generatedWSMs 	0
scalar LocScenario.node[14].appl 	receivedWSMs 	0
scalar LocScenario.node[14].appl 	generatedBSMs 	2281
scalar LocScenario.node[14].appl 	receivedBSMs 	14233
scalar LocScenario.node[14].appl 	generatedWSAs 	0
scalar LocScenario.node[14].appl 	receivedWSAs 	0
scalar LocScenario.node[14].appl 	rmseSUMGPS 	54548.497557352
scalar LocScenario.node[14].appl 	rmseSUMCP 	783497.57012165
scalar LocScenario.node[14].appl 	delaySum 	3.4084129367211e+184
scalar LocScenario.node[14].nic.phy80211p 	busyTime 	0.0065942656729524
scalar LocScenario.node[14].nic.mac1609_4 	ReceivedUnicastPackets 	0
scalar LocScenario.node[14].nic.mac1609_4 	ReceivedBroadcasts 	14233
scalar LocScenario.node[14].nic.mac1609_4 	SentPackets 	2281
scalar LocScenario.node[14].nic.mac1609_4 	SNIRLostPackets 	230
scalar LocScenario.node[14].nic.mac1609_4 	RXTXLostPackets 	0
scalar LocScenario.node[14].nic.mac1609_4 	TotalLostPackets 	230
scalar LocScenario.node[14].nic.mac1609_4 	DroppedPacketsInMac 	0
scalar LocScenario.node[14].nic.mac1609_4 	TooLittleTime 	0
scalar LocScenario.node[14].nic.mac1609_4 	TimesIntoBackoff 	2281
scalar LocScenario.node[14].nic.mac1609_4 	SlotsBackoff 	3520
scalar LocScenario.node[14].nic.mac1609_4 	NumInternalContention 	0
scalar LocScenario.node[14].nic.mac1609_4 	totalBusyTime 	1.733257
scalar LocScenario.node[14].veinsmobility 	startTime 	70.1
scalar LocScenario.node[14].veinsmobility 	totalTime 	228
scalar LocScenario.node[14].veinsmobility 	stopTime 	298.2
scalar LocScenario.node[14].veinsmobility 	minSpeed 	10.450006509421
scalar LocScenario.node[14].veinsmobility 	maxSpeed 	10.499922212365
scalar LocScenario.node[14].veinsmobility 	totalDistance 	2394.7592656246
scalar LocScenario.node[14].veinsmobility 	totalCO2Emission 	393.21090449267
scalar LocScenario.node[21].appl 	generatedWSMs 	0
scalar LocScenario.node[21].appl 	receivedWSMs 	0
scalar LocScenario.node[21].appl 	generatedBSMs 	2040
scalar LocScenario.node[21].appl 	receivedBSMs 	13549
scalar LocScenario.node[21].appl 	generatedWSAs 	0
scalar LocScenario.node[21].appl 	receivedWSAs 	0
scalar LocScenario.node[21].appl 	rmseSUMGPS 	884453.62175668
scalar LocScenario.node[21].appl 	rmseSUMCP 	645717.93377281
scalar LocScenario.node[21].appl 	delaySum 	1.5299088570354
scalar LocScenario.node[21].nic.phy80211p 	busyTime 	0.0070628235294137
scalar LocScenario.node[21].nic.mac1609_4 	ReceivedUnicastPackets 	0
scalar LocScenario.node[21].nic.mac1609_4 	ReceivedBroadcasts 	13549
scalar LocScenario.node[21].nic.mac1609_4 	SentPackets 	2040
scalar LocScenario.node[21].nic.mac1609_4 	SNIRLostPackets 	305
scalar LocScenario.node[21].nic.mac1609_4 	RXTXLostPackets 	0
scalar LocScenario.node[21].nic.mac1609_4 	TotalLostPackets 	305
scalar LocScenario.node[21].nic.mac1609_4 	DroppedPacketsInMac 	0
scalar LocScenario.node[21].nic.mac1609_4 	TooLittleTime 	0
scalar LocScenario.node[21].nic.mac1609_4 	TimesIntoBackoff 	2040
scalar LocScenario.node[21].nic.mac1609_4 	SlotsBackoff 	3050
scalar LocScenario.node[21].nic.mac1609_4 	NumInternalContention 	0
scalar LocScenario.node[21].nic.mac1609_4 	totalBusyTime 	1.644616
scalar LocScenario.node[21].veinsmobility 	startTime 	100.1
scalar LocScenario.node[21].veinsmobility 	totalTime 	203.9
scalar LocScenario.node[21].veinsmobility 	stopTime 	304.1
scalar LocScenario.node[21].veinsmobility 	minSpeed 	10.450061123318
scalar LocScenario.node[21].veinsmobility 	maxSpeed 	10.499973777065
scalar LocScenario.node[21].veinsmobility 	totalDistance 	2138.823912084
scalar LocScenario.node[21].veinsmobility 	totalCO2Emission 	352.21632328076
scalar LocScenario.node[16].appl 	generatedWSMs 	0
scalar LocScenario.node[16].appl 	receivedWSMs 	0
scalar LocScenario.node[16].appl 	generatedBSMs 	2281
scalar LocScenario.node[16].appl 	receivedBSMs 	14291
scalar LocScenario.node[16].appl 	generatedWSAs 	0
scalar LocScenario.node[16].appl 	receivedWSAs 	0
scalar LocScenario.node[16].appl 	rmseSUMGPS 	58574.10061847
scalar LocScenario.node[16].appl 	rmseSUMCP 	914216.19963369
scalar LocScenario.node[16].appl 	delaySum 	1.6423637552104
scalar LocScenario.node[16].nic.phy80211p 	busyTime 	0.0066904690925054
scalar LocScenario.node[16].nic.mac1609_4 	ReceivedUnicastPackets 	0
scalar LocScenario.node[16].nic.mac1609_4 	ReceivedBroadcasts 	14291
scalar LocScenario.node[16].nic.mac1609_4 	SentPackets 	2281
scalar LocScenario.node[16].nic.mac1609_4 	SNIRLostPackets 	383
scalar LocScenario.node[16].nic.mac1609_4 	RXTXLostPackets 	0
scalar LocScenario.node[16].nic.mac1609_4 	TotalLostPackets 	383
scalar LocScenario.node[16].nic.mac1609_4 	DroppedPacketsInMac 	0
scalar LocScenario.node[16].nic.mac1609_4 	TooLittleTime 	0
scalar LocScenario.node[16].nic.mac1609_4 	TimesIntoBackoff 	2281
scalar LocScenario.node[16].nic.mac1609_4 	SlotsBackoff 	3359
scalar LocScenario.node[16].nic.mac1609_4 	NumInternalContention 	0
scalar LocScenario.node[16].nic.mac1609_4 	totalBusyTime 	1.749689
scalar LocScenario.node[16].veinsmobility 	startTime 	80.1
scalar LocScenario.node[16].veinsmobility 	totalTime 	228
scalar LocScenario.node[16].veinsmobility 	stopTime 	308.2
scalar LocScenario.node[16].veinsmobility 	minSpeed 	10.450088126445
scalar LocScenario.node[16].veinsmobility 	maxSpeed 	10.499984971667
scalar LocScenario.node[16].veinsmobility 	totalDistance 	2394.6871302946
scalar LocScenario.node[16].veinsmobility 	totalCO2Emission 	393.40613899045
scalar LocScenario.node[23].appl 	generatedWSMs 	0
scalar LocScenario.node[23].appl 	receivedWSMs 	0
scalar LocScenario.node[23].appl 	generatedBSMs 	2040
scalar LocScenario.node[23].appl 	receivedBSMs 	13995
scalar LocScenario.node[23].appl 	generatedWSAs 	0
scalar LocScenario.node[23].appl 	receivedWSAs 	0
scalar LocScenario.node[23].appl 	rmseSUMGPS 	951846.14042284
scalar LocScenario.node[23].appl 	rmseSUMCP 	657292.26385419
scalar LocScenario.node[23].appl 	delaySum 	1.5856085613786
scalar LocScenario.node[23].nic.phy80211p 	busyTime 	0.0071785490196099
scalar LocScenario.node[23].nic.mac1609_4 	ReceivedUnicastPackets 	0
scalar LocScenario.node[23].nic.mac1609_4 	ReceivedBroadcasts 	13995
scalar LocScenario.node[23].nic.mac1609_4 	SentPackets 	2040
scalar LocScenario.node[23].nic.mac1609_4 	SNIRLostPackets 	86
scalar LocScenario.node[23].nic.mac1609_4 	RXTXLostPackets 	0
scalar LocScenario.node[23].nic.mac1609_4 	TotalLostPackets 	86
scalar LocScenario.node[23].nic.mac1609_4 	DroppedPacketsInMac 	0
scalar LocScenario.node[23].nic.mac1609_4 	TooLittleTime 	0
scalar LocScenario.node[23].nic.mac1609_4 	TimesIntoBackoff 	2040
scalar LocScenario.node[23].nic.mac1609_4 	SlotsBackoff 	3070
scalar LocScenario.node[23].nic.mac1609_4 	NumInternalContention 	0
scalar LocScenario.node[23].nic.mac1609_4 	totalBusyTime 	1.673424
scalar LocScenario.node[23].veinsmobility 	startTime 	110.1
scalar LocScenario.node[23].veinsmobility 	totalTime 	203.9
scalar LocScenario.node[23].veinsmobility 	stopTime 	314.1
scalar LocScenario.node[23].veinsmobility 	minSpeed 	10.450003159128
scalar LocScenario.node[23].veinsmobility 	maxSpeed 	10.499968560517
scalar LocScenario.node[23].veinsmobility 	totalDistance 	2138.6952773181
scalar LocScenario.node[23].veinsmobility 	totalCO2Emission 	351.82518596488
scalar LocScenario.node[18].appl 	generatedWSMs 	0
scalar LocScenario.node[18].appl 	receivedWSMs 	0
scalar LocScenario.node[18].appl 	generatedBSMs 	2281
scalar LocScenario.node[18].appl 	receivedBSMs 	14792
scalar LocScenario.node[18].appl 	generatedWSAs 	0
scalar LocScenario.node[18].appl 	receivedWSAs 	0
scalar LocScenario.node[18].appl 	rmseSUMGPS 	698557.70459192
scalar LocScenario.node[18].appl 	rmseSUMCP 	1010633.7538318
scalar LocScenario.node[18].appl 	delaySum 	1.6815867615009
scalar LocScenario.node[18].nic.phy80211p 	busyTime 	0.0067853046909272
scalar LocScenario.node[18].nic.mac1609_4 	ReceivedUnicastPackets 	0
scalar LocScenario.node[18].nic.mac1609_4 	ReceivedBroadcasts 	14792
scalar LocScenario.node[18].nic.mac1609_4 	SentPackets 	2281
scalar LocScenario.node[18].nic.mac1609_4 	SNIRLostPackets 	90
scalar LocScenario.node[18].nic.mac1609_4 	RXTXLostPackets 	0
scalar LocScenario.node[18].nic.mac1609_4 	TotalLostPackets 	90
scalar LocScenario.node[18].nic.mac1609_4 	DroppedPacketsInMac 	0
scalar LocScenario.node[18].nic.mac1609_4 	TooLittleTime 	0
scalar LocScenario.node[18].nic.mac1609_4 	TimesIntoBackoff 	2503
scalar LocScenario.node[18].nic.mac1609_4 	SlotsBackoff 	3827
scalar LocScenario.node[18].nic.mac1609_4 	NumInternalContention 	0
scalar LocScenario.node[18].nic.mac1609_4 	totalBusyTime 	1.781825
scalar LocScenario.node[18].veinsmobility 	startTime 	90.1
scalar LocScenario.node[18].veinsmobility 	totalTime 	228
scalar LocScenario.node[18].veinsmobility 	stopTime 	318.2
scalar LocScenario.node[18].veinsmobility 	minSpeed 	10.450017764105
scalar LocScenario.node[18].veinsmobility 	maxSpeed 	10.499933781195
scalar LocScenario.node[18].veinsmobility 	totalDistance 	2388.6093790634
scalar LocScenario.node[18].veinsmobility 	totalCO2Emission 	393.11601629635
scalar LocScenario.node[25].appl 	generatedWSMs 	0
scalar LocScenario.node[25].appl 	receivedWSMs 	0
scalar LocScenario.node[25].appl 	generatedBSMs 	2040
scalar LocScenario.node[25].appl 	receivedBSMs 	14298
scalar LocScenario.node[25].appl 	generatedWSAs 	0
scalar LocScenario.node[25].appl 	receivedWSAs 	0
scalar LocScenario.node[25].appl 	rmseSUMGPS 	610095.84550707
scalar LocScenario.node[25].appl 	rmseSUMCP 	663110.43753803
scalar LocScenario.node[25].appl 	delaySum 	1.6265552790128
scalar LocScenario.node[25].nic.phy80211p 	busyTime 	0.0072891764705904
scalar LocScenario.node[25].nic.mac1609_4 	ReceivedUnicastPackets 	0
scalar LocScenario.node[25].nic.mac1609_4 	ReceivedBroadcasts 	14298
scalar LocScenario.node[25].nic.mac1609_4 	SentPackets 	2040
scalar LocScenario.node[25].nic.mac1609_4 	SNIRLostPackets 	0
scalar LocScenario.node[25].nic.mac1609_4 	RXTXLostPackets 	0
scalar LocScenario.node[25].nic.mac1609_4 	TotalLostPackets 	0
scalar LocScenario.node[25].nic.mac1609_4 	DroppedPacketsInMac 	0
scalar LocScenario.node[25].nic.mac1609_4 	TooLittleTime 	0
scalar LocScenario.node[25].nic.mac1609_4 	TimesIntoBackoff 	2040
scalar LocScenario.node[25].nic.mac1609_4 	SlotsBackoff 	3167
scalar LocScenario.node[25].nic.mac1609_4 	NumInternalContention 	0
scalar LocScenario.node[25].nic.mac1609_4 	totalBusyTime 	1.701192
scalar LocScenario.node[25].veinsmobility 	startTime 	120.1
scalar LocScenario.node[25].veinsmobility 	totalTime 	203.9
scalar LocScenario.node[25].veinsmobility 	stopTime 	324.1
scalar LocScenario.node[25].veinsmobility 	minSpeed 	10.450015056913
scalar LocScenario.node[25].veinsmobility 	maxSpeed 	10.499908460723
scalar LocScenario.node[25].veinsmobility 	totalDistance 	2138.7798193471
scalar LocScenario.node[25].veinsmobility 	totalCO2Emission 	352.10497311077
scalar LocScenario.node[20].appl 	generatedWSMs 	0
scalar LocScenario.node[20].appl 	receivedWSMs 	0
scalar LocScenario.node[20].appl 	generatedBSMs 	2281
scalar LocScenario.node[20].appl 	receivedBSMs 	14993
scalar LocScenario.node[20].appl 	generatedWSAs 	0
scalar LocScenario.node[20].appl 	receivedWSAs 	0
scalar LocScenario.node[20].appl 	rmseSUMGPS 	706052.88394218
scalar LocScenario.node[20].appl 	rmseSUMCP 	780065.78736077
scalar LocScenario.node[20].appl 	delaySum 	1695.6403032714
scalar LocScenario.node[20].nic.phy80211p 	busyTime 	0.0068815081104801
scalar LocScenario.node[20].nic.mac1609_4 	ReceivedUnicastPackets 	0
scalar LocScenario.node[20].nic.mac1609_4 	ReceivedBroadcasts 	14993
scalar LocScenario.node[20].nic.mac1609_4 	SentPackets 	2281
scalar LocScenario.node[20].nic.mac1609_4 	SNIRLostPackets 	100
scalar LocScenario.node[20].nic.mac1609_4 	RXTXLostPackets 	0
scalar LocScenario.node[20].nic.mac1609_4 	TotalLostPackets 	100
scalar LocScenario.node[20].nic.mac1609_4 	DroppedPacketsInMac 	0
scalar LocScenario.node[20].nic.mac1609_4 	TooLittleTime 	0
scalar LocScenario.node[20].nic.mac1609_4 	TimesIntoBackoff 	2281
scalar LocScenario.node[20].nic.mac1609_4 	SlotsBackoff 	3543
scalar LocScenario.node[20].nic.mac1609_4 	NumInternalContention 	0
scalar LocScenario.node[20].nic.mac1609_4 	totalBusyTime 	1.803977
scalar LocScenario.node[20].veinsmobility 	startTime 	100.1
scalar LocScenario.node[20].veinsmobility 	totalTime 	228
scalar LocScenario.node[20].veinsmobility 	stopTime 	328.2
scalar LocScenario.node[20].veinsmobility 	minSpeed 	10.450004086399
scalar LocScenario.node[20].veinsmobility 	maxSpeed 	10.499950143532
scalar LocScenario.node[20].veinsmobility 	totalDistance 	2388.7082459532
scalar LocScenario.node[20].veinsmobility 	totalCO2Emission 	393.38445213475
scalar LocScenario.node[27].appl 	generatedWSMs 	0
scalar LocScenario.node[27].appl 	receivedWSMs 	0
scalar LocScenario.node[27].appl 	generatedBSMs 	2040
scalar LocScenario.node[27].appl 	receivedBSMs 	14425
scalar LocScenario.node[27].appl 	generatedWSAs 	0
scalar LocScenario.node[27].appl 	receivedWSAs 	0
scalar LocScenario.node[27].appl 	rmseSUMGPS 	765756.10926764
scalar LocScenario.node[27].appl 	rmseSUMCP 	643510.11524245
scalar LocScenario.node[27].appl 	delaySum 	1.6389740107315
scalar LocScenario.node[27].nic.phy80211p 	busyTime 	0.0073982745098061
scalar LocScenario.node[27].nic.mac1609_4 	ReceivedUnicastPackets 	0
scalar LocScenario.node[27].nic.mac1609_4 	ReceivedBroadcasts 	14425
scalar LocScenario.node[27].nic.mac1609_4 	SentPackets 	2040
scalar LocScenario.node[27].nic.mac1609_4 	SNIRLostPackets 	87
scalar LocScenario.node[27].nic.mac1609_4 	RXTXLostPackets 	0
scalar LocScenario.node[27].nic.mac1609_4 	TotalLostPackets 	87
scalar LocScenario.node[27].nic.mac1609_4 	DroppedPacketsInMac 	0
scalar LocScenario.node[27].nic.mac1609_4 	TooLittleTime 	0
scalar LocScenario.node[27].nic.mac1609_4 	TimesIntoBackoff 	2040
scalar LocScenario.node[27].nic.mac1609_4 	SlotsBackoff 	3100
scalar LocScenario.node[27].nic.mac1609_4 	NumInternalContention 	0
scalar LocScenario.node[27].nic.mac1609_4 	totalBusyTime 	1.718248
scalar LocScenario.node[27].veinsmobility 	startTime 	130.1
scalar LocScenario.node[27].veinsmobility 	totalTime 	203.9
scalar LocScenario.node[27].veinsmobility 	stopTime 	334.1
scalar LocScenario.node[27].veinsmobility 	minSpeed 	10.450030542677
scalar LocScenario.node[27].veinsmobility 	maxSpeed 	10.499993064278
scalar LocScenario.node[27].veinsmobility 	totalDistance 	2138.6280726129
scalar LocScenario.node[27].veinsmobility 	totalCO2Emission 	351.95146204362
scalar LocScenario.node[22].appl 	generatedWSMs 	0
scalar LocScenario.node[22].appl 	receivedWSMs 	0
scalar LocScenario.node[22].appl 	generatedBSMs 	2281
scalar LocScenario.node[22].appl 	receivedBSMs 	15060
scalar LocScenario.node[22].appl 	generatedWSAs 	0
scalar LocScenario.node[22].appl 	receivedWSAs 	0
scalar LocScenario.node[22].appl 	rmseSUMGPS 	80492.060259027
scalar LocScenario.node[22].appl 	rmseSUMCP 	717818.03702811
scalar LocScenario.node[22].appl 	delaySum 	1.7355796434803
scalar LocScenario.node[22].nic.phy80211p 	busyTime 	0.0069822709338033
scalar LocScenario.node[22].nic.mac1609_4 	ReceivedUnicastPackets 	0
scalar LocScenario.node[22].nic.mac1609_4 	ReceivedBroadcasts 	15060
scalar LocScenario.node[22].nic.mac1609_4 	SentPackets 	2281
scalar LocScenario.node[22].nic.mac1609_4 	SNIRLostPackets 	254
scalar LocScenario.node[22].nic.mac1609_4 	RXTXLostPackets 	0
scalar LocScenario.node[22].nic.mac1609_4 	TotalLostPackets 	254
scalar LocScenario.node[22].nic.mac1609_4 	DroppedPacketsInMac 	0
scalar LocScenario.node[22].nic.mac1609_4 	TooLittleTime 	0
scalar LocScenario.node[22].nic.mac1609_4 	TimesIntoBackoff 	2281
scalar LocScenario.node[22].nic.mac1609_4 	SlotsBackoff 	3411
scalar LocScenario.node[22].nic.mac1609_4 	NumInternalContention 	0
scalar LocScenario.node[22].nic.mac1609_4 	totalBusyTime 	1.816665
scalar LocScenario.node[22].veinsmobility 	startTime 	110.1
scalar LocScenario.node[22].veinsmobility 	totalTime 	228
scalar LocScenario.node[22].veinsmobility 	stopTime 	338.2
scalar LocScenario.node[22].veinsmobility 	minSpeed 	10.450017250108
scalar LocScenario.node[22].veinsmobility 	maxSpeed 	10.499997779401
scalar LocScenario.node[22].veinsmobility 	totalDistance 	2392.1625517818
scalar LocScenario.node[22].veinsmobility 	totalCO2Emission 	393.45411044692
scalar LocScenario.node[29].appl 	generatedWSMs 	0
scalar LocScenario.node[29].appl 	receivedWSMs 	0
scalar LocScenario.node[29].appl 	generatedBSMs 	2040
scalar LocScenario.node[29].appl 	receivedBSMs 	14457
scalar LocScenario.node[29].appl 	generatedWSAs 	0
scalar LocScenario.node[29].appl 	receivedWSAs 	0
scalar LocScenario.node[29].appl 	rmseSUMGPS 	759933.96208841
scalar LocScenario.node[29].appl 	rmseSUMCP 	630267.79471241
scalar LocScenario.node[29].appl 	delaySum 	1.6415404311613
scalar LocScenario.node[29].nic.phy80211p 	busyTime 	0.0075124705882376
scalar LocScenario.node[29].nic.mac1609_4 	ReceivedUnicastPackets 	0
scalar LocScenario.node[29].nic.mac1609_4 	ReceivedBroadcasts 	14457
scalar LocScenario.node[29].nic.mac1609_4 	SentPackets 	2040
scalar LocScenario.node[29].nic.mac1609_4 	SNIRLostPackets 	279
scalar LocScenario.node[29].nic.mac1609_4 	RXTXLostPackets 	0
scalar LocScenario.node[29].nic.mac1609_4 	TotalLostPackets 	279
scalar LocScenario.node[29].nic.mac1609_4 	DroppedPacketsInMac 	0
scalar LocScenario.node[29].nic.mac1609_4 	TooLittleTime 	0
scalar LocScenario.node[29].nic.mac1609_4 	TimesIntoBackoff 	2040
scalar LocScenario.node[29].nic.mac1609_4 	SlotsBackoff 	3045
scalar LocScenario.node[29].nic.mac1609_4 	NumInternalContention 	0
scalar LocScenario.node[29].nic.mac1609_4 	totalBusyTime 	1.736393441646
scalar LocScenario.node[29].veinsmobility 	startTime 	140.1
scalar LocScenario.node[29].veinsmobility 	totalTime 	203.9
scalar LocScenario.node[29].veinsmobility 	stopTime 	344.1
scalar LocScenario.node[29].veinsmobility 	minSpeed 	10.450013005361
scalar LocScenario.node[29].veinsmobility 	maxSpeed 	10.499991841835
scalar LocScenario.node[29].veinsmobility 	totalDistance 	2133.8260219381
scalar LocScenario.node[29].veinsmobility 	totalCO2Emission 	351.55084771107
scalar LocScenario.node[24].appl 	generatedWSMs 	0
scalar LocScenario.node[24].appl 	receivedWSMs 	0
scalar LocScenario.node[24].appl 	generatedBSMs 	2281
scalar LocScenario.node[24].appl 	receivedBSMs 	15244
scalar LocScenario.node[24].appl 	generatedWSAs 	0
scalar LocScenario.node[24].appl 	receivedWSAs 	0
scalar LocScenario.node[24].appl 	rmseSUMGPS 	26016.575257508
scalar LocScenario.node[24].appl 	rmseSUMCP 	693321.00424993
scalar LocScenario.node[24].appl 	delaySum 	1.7243648750626
scalar LocScenario.node[24].nic.phy80211p 	busyTime 	0.0070853134590117
scalar LocScenario.node[24].nic.mac1609_4 	ReceivedUnicastPackets 	0
scalar LocScenario.node[24].nic.mac1609_4 	ReceivedBroadcasts 	15244
scalar LocScenario.node[24].nic.mac1609_4 	SentPackets 	2281
scalar LocScenario.node[24].nic.mac1609_4 	SNIRLostPackets 	296
scalar LocScenario.node[24].nic.mac1609_4 	RXTXLostPackets 	0
scalar LocScenario.node[24].nic.mac1609_4 	TotalLostPackets 	296
scalar LocScenario.node[24].nic.mac1609_4 	DroppedPacketsInMac 	0
scalar LocScenario.node[24].nic.mac1609_4 	TooLittleTime 	0
scalar LocScenario.node[24].nic.mac1609_4 	TimesIntoBackoff 	2281
scalar LocScenario.node[24].nic.mac1609_4 	SlotsBackoff 	3416
scalar LocScenario.node[24].nic.mac1609_4 	NumInternalContention 	0
scalar LocScenario.node[24].nic.mac1609_4 	totalBusyTime 	1.845460723761
scalar LocScenario.node[24].veinsmobility 	startTime 	120.1
scalar LocScenario.node[24].veinsmobility 	totalTime 	228
scalar LocScenario.node[24].veinsmobility 	stopTime 	348.2
scalar LocScenario.node[24].veinsmobility 	minSpeed 	10.450013990316
scalar LocScenario.node[24].veinsmobility 	maxSpeed 	10.499966430082
scalar LocScenario.node[24].veinsmobility 	totalDistance 	2392.2798503736
scalar LocScenario.node[24].veinsmobility 	totalCO2Emission 	393.17775990118
scalar LocScenario.node[31].appl 	generatedWSMs 	0
scalar LocScenario.node[31].appl 	receivedWSMs 	0
scalar LocScenario.node[31].appl 	generatedBSMs 	2040
scalar LocScenario.node[31].appl 	receivedBSMs 	14905
scalar LocScenario.node[31].appl 	generatedWSAs 	0
scalar LocScenario.node[31].appl 	receivedWSAs 	0
scalar LocScenario.node[31].appl 	rmseSUMGPS 	676054.18919804
scalar LocScenario.node[31].appl 	rmseSUMCP 	632208.11325483
scalar LocScenario.node[31].appl 	delaySum 	1.6930118091176
scalar LocScenario.node[31].nic.phy80211p 	busyTime 	0.0076032156862769
scalar LocScenario.node[31].nic.mac1609_4 	ReceivedUnicastPackets 	0
scalar LocScenario.node[31].nic.mac1609_4 	ReceivedBroadcasts 	14905
scalar LocScenario.node[31].nic.mac1609_4 	SentPackets 	2040
scalar LocScenario.node[31].nic.mac1609_4 	SNIRLostPackets 	9
scalar LocScenario.node[31].nic.mac1609_4 	RXTXLostPackets 	0
scalar LocScenario.node[31].nic.mac1609_4 	TotalLostPackets 	9
scalar LocScenario.node[31].nic.mac1609_4 	DroppedPacketsInMac 	0
scalar LocScenario.node[31].nic.mac1609_4 	TooLittleTime 	0
scalar LocScenario.node[31].nic.mac1609_4 	TimesIntoBackoff 	2040
scalar LocScenario.node[31].nic.mac1609_4 	SlotsBackoff 	2987
scalar LocScenario.node[31].nic.mac1609_4 	NumInternalContention 	0
scalar LocScenario.node[31].nic.mac1609_4 	totalBusyTime 	1.765152
scalar LocScenario.node[31].veinsmobility 	startTime 	150.1
scalar LocScenario.node[31].veinsmobility 	totalTime 	203.9
scalar LocScenario.node[31].veinsmobility 	stopTime 	354.1
scalar LocScenario.node[31].veinsmobility 	minSpeed 	10.450005477387
scalar LocScenario.node[31].veinsmobility 	maxSpeed 	10.499987186701
scalar LocScenario.node[31].veinsmobility 	totalDistance 	2138.7854698616
scalar LocScenario.node[31].veinsmobility 	totalCO2Emission 	352.16982121746
scalar LocScenario.node[26].appl 	generatedWSMs 	0
scalar LocScenario.node[26].appl 	receivedWSMs 	0
scalar LocScenario.node[26].appl 	generatedBSMs 	2281
scalar LocScenario.node[26].appl 	receivedBSMs 	15727
scalar LocScenario.node[26].appl 	generatedWSAs 	0
scalar LocScenario.node[26].appl 	receivedWSAs 	0
scalar LocScenario.node[26].appl 	rmseSUMGPS 	70404.308989922
scalar LocScenario.node[26].appl 	rmseSUMCP 	676987.93655083
scalar LocScenario.node[26].appl 	delaySum 	1.7713708338122
scalar LocScenario.node[26].nic.phy80211p 	busyTime 	0.0071856203419578
scalar LocScenario.node[26].nic.mac1609_4 	ReceivedUnicastPackets 	0
scalar LocScenario.node[26].nic.mac1609_4 	ReceivedBroadcasts 	15727
scalar LocScenario.node[26].nic.mac1609_4 	SentPackets 	2281
scalar LocScenario.node[26].nic.mac1609_4 	SNIRLostPackets 	33
scalar LocScenario.node[26].nic.mac1609_4 	RXTXLostPackets 	0
scalar LocScenario.node[26].nic.mac1609_4 	TotalLostPackets 	33
scalar LocScenario.node[26].nic.mac1609_4 	DroppedPacketsInMac 	0
scalar LocScenario.node[26].nic.mac1609_4 	TooLittleTime 	0
scalar LocScenario.node[26].nic.mac1609_4 	TimesIntoBackoff 	2281
scalar LocScenario.node[26].nic.mac1609_4 	SlotsBackoff 	3412
scalar LocScenario.node[26].nic.mac1609_4 	NumInternalContention 	0
scalar LocScenario.node[26].nic.mac1609_4 	totalBusyTime 	1.878545
scalar LocScenario.node[26].veinsmobility 	startTime 	130.1
scalar LocScenario.node[26].veinsmobility 	totalTime 	228
scalar LocScenario.node[26].veinsmobility 	stopTime 	358.2
scalar LocScenario.node[26].veinsmobility 	minSpeed 	10.450027862564
scalar LocScenario.node[26].veinsmobility 	maxSpeed 	10.499962872546
scalar LocScenario.node[26].veinsmobility 	totalDistance 	2392.3418586689
scalar LocScenario.node[26].veinsmobility 	totalCO2Emission 	393.09831432923
scalar LocScenario.node[33].appl 	generatedWSMs 	0
scalar LocScenario.node[33].appl 	receivedWSMs 	0
scalar LocScenario.node[33].appl 	generatedBSMs 	2040
scalar LocScenario.node[33].appl 	receivedBSMs 	15142
scalar LocScenario.node[33].appl 	generatedWSAs 	0
scalar LocScenario.node[33].appl 	receivedWSAs 	0
scalar LocScenario.node[33].appl 	rmseSUMGPS 	780981.06142513
scalar LocScenario.node[33].appl 	rmseSUMCP 	651819.02215437
scalar LocScenario.node[33].appl 	delaySum 	1.7208340629739
scalar LocScenario.node[33].nic.phy80211p 	busyTime 	0.007721490196081
scalar LocScenario.node[33].nic.mac1609_4 	ReceivedUnicastPackets 	0
scalar LocScenario.node[33].nic.mac1609_4 	ReceivedBroadcasts 	15142
scalar LocScenario.node[33].nic.mac1609_4 	SentPackets 	2040
scalar LocScenario.node[33].nic.mac1609_4 	SNIRLostPackets 	4
scalar LocScenario.node[33].nic.mac1609_4 	RXTXLostPackets 	0
scalar LocScenario.node[33].nic.mac1609_4 	TotalLostPackets 	4
scalar LocScenario.node[33].nic.mac1609_4 	DroppedPacketsInMac 	0
scalar LocScenario.node[33].nic.mac1609_4 	TooLittleTime 	0
scalar LocScenario.node[33].nic.mac1609_4 	TimesIntoBackoff 	2040
scalar LocScenario.node[33].nic.mac1609_4 	SlotsBackoff 	3102
scalar LocScenario.node[33].nic.mac1609_4 	NumInternalContention 	0
scalar LocScenario.node[33].nic.mac1609_4 	totalBusyTime 	1.789384
scalar LocScenario.node[33].veinsmobility 	startTime 	160.1
scalar LocScenario.node[33].veinsmobility 	totalTime 	203.9
scalar LocScenario.node[33].veinsmobility 	stopTime 	364.1
scalar LocScenario.node[33].veinsmobility 	minSpeed 	10.450000154669
scalar LocScenario.node[33].veinsmobility 	maxSpeed 	10.499994981929
scalar LocScenario.node[33].veinsmobility 	totalDistance 	2133.8801164246
scalar LocScenario.node[33].veinsmobility 	totalCO2Emission 	352.00900588204
scalar LocScenario.node[28].appl 	generatedWSMs 	0
scalar LocScenario.node[28].appl 	receivedWSMs 	0
scalar LocScenario.node[28].appl 	generatedBSMs 	2281
scalar LocScenario.node[28].appl 	receivedBSMs 	15982
scalar LocScenario.node[28].appl 	generatedWSAs 	0
scalar LocScenario.node[28].appl 	receivedWSAs 	0
scalar LocScenario.node[28].appl 	rmseSUMGPS 	57850.308927574
scalar LocScenario.node[28].appl 	rmseSUMCP 	673275.7550161
scalar LocScenario.node[28].appl 	delaySum 	1.7923404170724
scalar LocScenario.node[28].nic.phy80211p 	busyTime 	0.0072877509864121
scalar LocScenario.node[28].nic.mac1609_4 	ReceivedUnicastPackets 	0
scalar LocScenario.node[28].nic.mac1609_4 	ReceivedBroadcasts 	15982
scalar LocScenario.node[28].nic.mac1609_4 	SentPackets 	2281
scalar LocScenario.node[28].nic.mac1609_4 	SNIRLostPackets 	2
scalar LocScenario.node[28].nic.mac1609_4 	RXTXLostPackets 	0
scalar LocScenario.node[28].nic.mac1609_4 	TotalLostPackets 	2
scalar LocScenario.node[28].nic.mac1609_4 	DroppedPacketsInMac 	0
scalar LocScenario.node[28].nic.mac1609_4 	TooLittleTime 	0
scalar LocScenario.node[28].nic.mac1609_4 	TimesIntoBackoff 	2281
scalar LocScenario.node[28].nic.mac1609_4 	SlotsBackoff 	3413
scalar LocScenario.node[28].nic.mac1609_4 	NumInternalContention 	0
scalar LocScenario.node[28].nic.mac1609_4 	totalBusyTime 	1.901841
scalar LocScenario.node[28].veinsmobility 	startTime 	140.1
scalar LocScenario.node[28].veinsmobility 	totalTime 	228
scalar LocScenario.node[28].veinsmobility 	stopTime 	368.2
scalar LocScenario.node[28].veinsmobility 	minSpeed 	10.450036829757
scalar LocScenario.node[28].veinsmobility 	maxSpeed 	10.499990493432
scalar LocScenario.node[28].veinsmobility 	totalDistance 	2392.344819213
scalar LocScenario.node[28].veinsmobility 	totalCO2Emission 	392.9441834061
scalar LocScenario.node[35].appl 	generatedWSMs 	0
scalar LocScenario.node[35].appl 	receivedWSMs 	0
scalar LocScenario.node[35].appl 	generatedBSMs 	2040
scalar LocScenario.node[35].appl 	receivedBSMs 	15319
scalar LocScenario.node[35].appl 	generatedWSAs 	0
scalar LocScenario.node[35].appl 	receivedWSAs 	0
scalar LocScenario.node[35].appl 	rmseSUMGPS 	776320.77754346
scalar LocScenario.node[35].appl 	rmseSUMCP 	613107.08805296
scalar LocScenario.node[35].appl 	delaySum 	1.7412840958019
scalar LocScenario.node[35].nic.phy80211p 	busyTime 	0.0078096862745124
scalar LocScenario.node[35].nic.mac1609_4 	ReceivedUnicastPackets 	0
scalar LocScenario.node[35].nic.mac1609_4 	ReceivedBroadcasts 	15319
scalar LocScenario.node[35].nic.mac1609_4 	SentPackets 	2040
scalar LocScenario.node[35].nic.mac1609_4 	SNIRLostPackets 	0
scalar LocScenario.node[35].nic.mac1609_4 	RXTXLostPackets 	0
scalar LocScenario.node[35].nic.mac1609_4 	TotalLostPackets 	0
scalar LocScenario.node[35].nic.mac1609_4 	DroppedPacketsInMac 	0
scalar LocScenario.node[35].nic.mac1609_4 	TooLittleTime 	0
scalar LocScenario.node[35].nic.mac1609_4 	TimesIntoBackoff 	2040
scalar LocScenario.node[35].nic.mac1609_4 	SlotsBackoff 	3082
scalar LocScenario.node[35].nic.mac1609_4 	NumInternalContention 	0
scalar LocScenario.node[35].nic.mac1609_4 	totalBusyTime 	1.807376
scalar LocScenario.node[35].veinsmobility 	startTime 	170.1
scalar LocScenario.node[35].veinsmobility 	totalTime 	203.9
scalar LocScenario.node[35].veinsmobility 	stopTime 	374.1
scalar LocScenario.node[35].veinsmobility 	minSpeed 	10.450012924639
scalar LocScenario.node[35].veinsmobility 	maxSpeed 	10.499996812129
scalar LocScenario.node[35].veinsmobility 	totalDistance 	2138.782499769
scalar LocScenario.node[35].veinsmobility 	totalCO2Emission 	351.75935531905
scalar LocScenario.node[30].appl 	generatedWSMs 	0
scalar LocScenario.node[30].appl 	receivedWSMs 	0
scalar LocScenario.node[30].appl 	generatedBSMs 	2281
scalar LocScenario.node[30].appl 	receivedBSMs 	16142
scalar LocScenario.node[30].appl 	generatedWSAs 	0
scalar LocScenario.node[30].appl 	receivedWSAs 	0
scalar LocScenario.node[30].appl 	rmseSUMGPS 	35486.971071603
scalar LocScenario.node[30].appl 	rmseSUMCP 	651508.3925833
scalar LocScenario.node[30].appl 	delaySum 	1.8316043344558
scalar LocScenario.node[30].nic.phy80211p 	busyTime 	0.0073871459886043
scalar LocScenario.node[30].nic.mac1609_4 	ReceivedUnicastPackets 	0
scalar LocScenario.node[30].nic.mac1609_4 	ReceivedBroadcasts 	16142
scalar LocScenario.node[30].nic.mac1609_4 	SentPackets 	2281
scalar LocScenario.node[30].nic.mac1609_4 	SNIRLostPackets 	60
scalar LocScenario.node[30].nic.mac1609_4 	RXTXLostPackets 	0
scalar LocScenario.node[30].nic.mac1609_4 	TotalLostPackets 	60
scalar LocScenario.node[30].nic.mac1609_4 	DroppedPacketsInMac 	0
scalar LocScenario.node[30].nic.mac1609_4 	TooLittleTime 	0
scalar LocScenario.node[30].nic.mac1609_4 	TimesIntoBackoff 	2281
scalar LocScenario.node[30].nic.mac1609_4 	SlotsBackoff 	3444
scalar LocScenario.node[30].nic.mac1609_4 	NumInternalContention 	0
scalar LocScenario.node[30].nic.mac1609_4 	totalBusyTime 	1.919001
scalar LocScenario.node[30].veinsmobility 	startTime 	150.1
scalar LocScenario.node[30].veinsmobility 	totalTime 	228
scalar LocScenario.node[30].veinsmobility 	stopTime 	378.2
scalar LocScenario.node[30].veinsmobility 	minSpeed 	10.450012444181
scalar LocScenario.node[30].veinsmobility 	maxSpeed 	10.499991354463
scalar LocScenario.node[30].veinsmobility 	totalDistance 	2394.7820570196
scalar LocScenario.node[30].veinsmobility 	totalCO2Emission 	393.06130818023
scalar LocScenario.node[37].appl 	generatedWSMs 	0
scalar LocScenario.node[37].appl 	receivedWSMs 	0
scalar LocScenario.node[37].appl 	generatedBSMs 	2040
scalar LocScenario.node[37].appl 	receivedBSMs 	15526
scalar LocScenario.node[37].appl 	generatedWSAs 	0
scalar LocScenario.node[37].appl 	receivedWSAs 	0
scalar LocScenario.node[37].appl 	rmseSUMGPS 	767043.5629616
scalar LocScenario.node[37].appl 	rmseSUMCP 	605770.34122526
scalar LocScenario.node[37].appl 	delaySum 	1.7676032915771
scalar LocScenario.node[37].nic.phy80211p 	busyTime 	0.0079152156862773
scalar LocScenario.node[37].nic.mac1609_4 	ReceivedUnicastPackets 	0
scalar LocScenario.node[37].nic.mac1609_4 	ReceivedBroadcasts 	15526
scalar LocScenario.node[37].nic.mac1609_4 	SentPackets 	2040
scalar LocScenario.node[37].nic.mac1609_4 	SNIRLostPackets 	0
scalar LocScenario.node[37].nic.mac1609_4 	RXTXLostPackets 	0
scalar LocScenario.node[37].nic.mac1609_4 	TotalLostPackets 	0
scalar LocScenario.node[37].nic.mac1609_4 	DroppedPacketsInMac 	0
scalar LocScenario.node[37].nic.mac1609_4 	TooLittleTime 	0
scalar LocScenario.node[37].nic.mac1609_4 	TimesIntoBackoff 	2040
scalar LocScenario.node[37].nic.mac1609_4 	SlotsBackoff 	3205
scalar LocScenario.node[37].nic.mac1609_4 	NumInternalContention 	0
scalar LocScenario.node[37].nic.mac1609_4 	totalBusyTime 	1.828904
scalar LocScenario.node[37].veinsmobility 	startTime 	180.1
scalar LocScenario.node[37].veinsmobility 	totalTime 	203.9
scalar LocScenario.node[37].veinsmobility 	stopTime 	384.1
scalar LocScenario.node[37].veinsmobility 	minSpeed 	10.450076274213
scalar LocScenario.node[37].veinsmobility 	maxSpeed 	10.49999087709
scalar LocScenario.node[37].veinsmobility 	totalDistance 	2133.9042864936
scalar LocScenario.node[37].veinsmobility 	totalCO2Emission 	351.71054255389
scalar LocScenario.node[32].appl 	generatedWSMs 	0
scalar LocScenario.node[32].appl 	receivedWSMs 	0
scalar LocScenario.node[32].appl 	generatedBSMs 	2281
scalar LocScenario.node[32].appl 	receivedBSMs 	16321
scalar LocScenario.node[32].appl 	generatedWSAs 	0
scalar LocScenario.node[32].appl 	receivedWSAs 	0
scalar LocScenario.node[32].appl 	rmseSUMGPS 	646993.10029767
scalar LocScenario.node[32].appl 	rmseSUMCP 	659367.57082729
scalar LocScenario.node[32].appl 	delaySum 	1.8522873865778
scalar LocScenario.node[32].nic.phy80211p 	busyTime 	0.0074869969311734
scalar LocScenario.node[32].nic.mac1609_4 	ReceivedUnicastPackets 	0
scalar LocScenario.node[32].nic.mac1609_4 	ReceivedBroadcasts 	16321
scalar LocScenario.node[32].nic.mac1609_4 	SentPackets 	2281
scalar LocScenario.node[32].nic.mac1609_4 	SNIRLostPackets 	100
scalar LocScenario.node[32].nic.mac1609_4 	RXTXLostPackets 	0
scalar LocScenario.node[32].nic.mac1609_4 	TotalLostPackets 	100
scalar LocScenario.node[32].nic.mac1609_4 	DroppedPacketsInMac 	0
scalar LocScenario.node[32].nic.mac1609_4 	TooLittleTime 	0
scalar LocScenario.node[32].nic.mac1609_4 	TimesIntoBackoff 	2281
scalar LocScenario.node[32].nic.mac1609_4 	SlotsBackoff 	3492
scalar LocScenario.node[32].nic.mac1609_4 	NumInternalContention 	0
scalar LocScenario.node[32].nic.mac1609_4 	totalBusyTime 	1.942089
scalar LocScenario.node[32].veinsmobility 	startTime 	160.1
scalar LocScenario.node[32].veinsmobility 	totalTime 	228
scalar LocScenario.node[32].veinsmobility 	stopTime 	388.2
scalar LocScenario.node[32].veinsmobility 	minSpeed 	10.450011259923
scalar LocScenario.node[32].veinsmobility 	maxSpeed 	10.499971676851
scalar LocScenario.node[32].veinsmobility 	totalDistance 	2394.5805880806
scalar LocScenario.node[32].veinsmobility 	totalCO2Emission 	394.2165590856
scalar LocScenario.node[39].appl 	generatedWSMs 	0
scalar LocScenario.node[39].appl 	receivedWSMs 	0
scalar LocScenario.node[39].appl 	generatedBSMs 	2040
scalar LocScenario.node[39].appl 	receivedBSMs 	15674
scalar LocScenario.node[39].appl 	generatedWSAs 	0
scalar LocScenario.node[39].appl 	receivedWSAs 	0
scalar LocScenario.node[39].appl 	rmseSUMGPS 	917379.09825716
scalar LocScenario.node[39].appl 	rmseSUMCP 	636390.19495045
scalar LocScenario.node[39].appl 	delaySum 	1.7811994461798
scalar LocScenario.node[39].nic.phy80211p 	busyTime 	0.0079937254901989
scalar LocScenario.node[39].nic.mac1609_4 	ReceivedUnicastPackets 	0
scalar LocScenario.node[39].nic.mac1609_4 	ReceivedBroadcasts 	15674
scalar LocScenario.node[39].nic.mac1609_4 	SentPackets 	2040
scalar LocScenario.node[39].nic.mac1609_4 	SNIRLostPackets 	6
scalar LocScenario.node[39].nic.mac1609_4 	RXTXLostPackets 	0
scalar LocScenario.node[39].nic.mac1609_4 	TotalLostPackets 	6
scalar LocScenario.node[39].nic.mac1609_4 	DroppedPacketsInMac 	0
scalar LocScenario.node[39].nic.mac1609_4 	TooLittleTime 	0
scalar LocScenario.node[39].nic.mac1609_4 	TimesIntoBackoff 	2040
scalar LocScenario.node[39].nic.mac1609_4 	SlotsBackoff 	3074
scalar LocScenario.node[39].nic.mac1609_4 	NumInternalContention 	0
scalar LocScenario.node[39].nic.mac1609_4 	totalBusyTime 	1.844608
scalar LocScenario.node[39].veinsmobility 	startTime 	190.1
scalar LocScenario.node[39].veinsmobility 	totalTime 	203.9
scalar LocScenario.node[39].veinsmobility 	stopTime 	394.1
scalar LocScenario.node[39].veinsmobility 	minSpeed 	10.450025147828
scalar LocScenario.node[39].veinsmobility 	maxSpeed 	10.499971532705
scalar LocScenario.node[39].veinsmobility 	totalDistance 	2133.8963966906
scalar LocScenario.node[39].veinsmobility 	totalCO2Emission 	351.62990655435
scalar LocScenario.node[34].appl 	generatedWSMs 	0
scalar LocScenario.node[34].appl 	receivedWSMs 	0
scalar LocScenario.node[34].appl 	generatedBSMs 	2281
scalar LocScenario.node[34].appl 	receivedBSMs 	16632
scalar LocScenario.node[34].appl 	generatedWSAs 	0
scalar LocScenario.node[34].appl 	receivedWSAs 	0
scalar LocScenario.node[34].appl 	rmseSUMGPS 	436830.45032445
scalar LocScenario.node[34].appl 	rmseSUMCP 	665409.70118338
scalar LocScenario.node[34].appl 	delaySum 	877741.86234643
scalar LocScenario.node[34].nic.phy80211p 	busyTime 	0.0075832003507263
scalar LocScenario.node[34].nic.mac1609_4 	ReceivedUnicastPackets 	0
scalar LocScenario.node[34].nic.mac1609_4 	ReceivedBroadcasts 	16632
scalar LocScenario.node[34].nic.mac1609_4 	SentPackets 	2281
scalar LocScenario.node[34].nic.mac1609_4 	SNIRLostPackets 	0
scalar LocScenario.node[34].nic.mac1609_4 	RXTXLostPackets 	0
scalar LocScenario.node[34].nic.mac1609_4 	TotalLostPackets 	0
scalar LocScenario.node[34].nic.mac1609_4 	DroppedPacketsInMac 	0
scalar LocScenario.node[34].nic.mac1609_4 	TooLittleTime 	0
scalar LocScenario.node[34].nic.mac1609_4 	TimesIntoBackoff 	2496
scalar LocScenario.node[34].nic.mac1609_4 	SlotsBackoff 	3802
scalar LocScenario.node[34].nic.mac1609_4 	NumInternalContention 	0
scalar LocScenario.node[34].nic.mac1609_4 	totalBusyTime 	1.969233
scalar LocScenario.node[34].veinsmobility 	startTime 	170.1
scalar LocScenario.node[34].veinsmobility 	totalTime 	228
scalar LocScenario.node[34].veinsmobility 	stopTime 	398.2
scalar LocScenario.node[34].veinsmobility 	minSpeed 	10.450027973333
scalar LocScenario.node[34].veinsmobility 	maxSpeed 	10.49995361719
scalar LocScenario.node[34].veinsmobility 	totalDistance 	2394.6499796727
scalar LocScenario.node[34].veinsmobility 	totalCO2Emission 	393.86753372691
scalar LocScenario.node[41].appl 	generatedWSMs 	0
scalar LocScenario.node[41].appl 	receivedWSMs 	0
scalar LocScenario.node[41].appl 	generatedBSMs 	2040
scalar LocScenario.node[41].appl 	receivedBSMs 	15811
scalar LocScenario.node[41].appl 	generatedWSAs 	0
scalar LocScenario.node[41].appl 	receivedWSAs 	0
scalar LocScenario.node[41].appl 	rmseSUMGPS 	1063958.509941
scalar LocScenario.node[41].appl 	rmseSUMCP 	653521.65031592
scalar LocScenario.node[41].appl 	delaySum 	1.8047127783691
scalar LocScenario.node[41].nic.phy80211p 	busyTime 	0.0080656078431402
scalar LocScenario.node[41].nic.mac1609_4 	ReceivedUnicastPackets 	0
scalar LocScenario.node[41].nic.mac1609_4 	ReceivedBroadcasts 	15811
scalar LocScenario.node[41].nic.mac1609_4 	SentPackets 	2040
scalar LocScenario.node[41].nic.mac1609_4 	SNIRLostPackets 	10
scalar LocScenario.node[41].nic.mac1609_4 	RXTXLostPackets 	0
scalar LocScenario.node[41].nic.mac1609_4 	TotalLostPackets 	10
scalar LocScenario.node[41].nic.mac1609_4 	DroppedPacketsInMac 	0
scalar LocScenario.node[41].nic.mac1609_4 	TooLittleTime 	0
scalar LocScenario.node[41].nic.mac1609_4 	TimesIntoBackoff 	2040
scalar LocScenario.node[41].nic.mac1609_4 	SlotsBackoff 	3109
scalar LocScenario.node[41].nic.mac1609_4 	NumInternalContention 	0
scalar LocScenario.node[41].nic.mac1609_4 	totalBusyTime 	1.859272
scalar LocScenario.node[41].veinsmobility 	startTime 	200.1
scalar LocScenario.node[41].veinsmobility 	totalTime 	203.9
scalar LocScenario.node[41].veinsmobility 	stopTime 	404.1
scalar LocScenario.node[41].veinsmobility 	minSpeed 	10.45002666408
scalar LocScenario.node[41].veinsmobility 	maxSpeed 	10.499908947607
scalar LocScenario.node[41].veinsmobility 	totalDistance 	2138.7891337187
scalar LocScenario.node[41].veinsmobility 	totalCO2Emission 	351.88989646538
scalar LocScenario.node[36].appl 	generatedWSMs 	0
scalar LocScenario.node[36].appl 	receivedWSMs 	0
scalar LocScenario.node[36].appl 	generatedBSMs 	2281
scalar LocScenario.node[36].appl 	receivedBSMs 	16754
scalar LocScenario.node[36].appl 	generatedWSAs 	0
scalar LocScenario.node[36].appl 	receivedWSAs 	0
scalar LocScenario.node[36].appl 	rmseSUMGPS 	21455.127522494
scalar LocScenario.node[36].appl 	rmseSUMCP 	657813.81821953
scalar LocScenario.node[36].appl 	delaySum 	1.8956346883969
scalar LocScenario.node[36].nic.phy80211p 	busyTime 	0.0076835072336725
scalar LocScenario.node[36].nic.mac1609_4 	ReceivedUnicastPackets 	0
scalar LocScenario.node[36].nic.mac1609_4 	ReceivedBroadcasts 	16754
scalar LocScenario.node[36].nic.mac1609_4 	SentPackets 	2281
scalar LocScenario.node[36].nic.mac1609_4 	SNIRLostPackets 	98
scalar LocScenario.node[36].nic.mac1609_4 	RXTXLostPackets 	0
scalar LocScenario.node[36].nic.mac1609_4 	TotalLostPackets 	98
scalar LocScenario.node[36].nic.mac1609_4 	DroppedPacketsInMac 	0
scalar LocScenario.node[36].nic.mac1609_4 	TooLittleTime 	0
scalar LocScenario.node[36].nic.mac1609_4 	TimesIntoBackoff 	2281
scalar LocScenario.node[36].nic.mac1609_4 	SlotsBackoff 	3439
scalar LocScenario.node[36].nic.mac1609_4 	NumInternalContention 	0
scalar LocScenario.node[36].nic.mac1609_4 	totalBusyTime 	1.987017
scalar LocScenario.node[36].veinsmobility 	startTime 	180.1
scalar LocScenario.node[36].veinsmobility 	totalTime 	228
scalar LocScenario.node[36].veinsmobility 	stopTime 	408.2
scalar LocScenario.node[36].veinsmobility 	minSpeed 	10.450010553352
scalar LocScenario.node[36].veinsmobility 	maxSpeed 	10.49997906948
scalar LocScenario.node[36].veinsmobility 	totalDistance 	2392.4054914051
scalar LocScenario.node[36].veinsmobility 	totalCO2Emission 	393.58312738329
scalar LocScenario.node[43].appl 	generatedWSMs 	0
scalar LocScenario.node[43].appl 	receivedWSMs 	0
scalar LocScenario.node[43].appl 	generatedBSMs 	2040
scalar LocScenario.node[43].appl 	receivedBSMs 	15913
scalar LocScenario.node[43].appl 	generatedWSAs 	0
scalar LocScenario.node[43].appl 	receivedWSAs 	0
scalar LocScenario.node[43].appl 	rmseSUMGPS 	323109.73665348
scalar LocScenario.node[43].appl 	rmseSUMCP 	652929.81309612
scalar LocScenario.node[43].appl 	delaySum 	1.8136887218345
scalar LocScenario.node[43].nic.phy80211p 	busyTime 	0.0081125098039245
scalar LocScenario.node[43].nic.mac1609_4 	ReceivedUnicastPackets 	0
scalar LocScenario.node[43].nic.mac1609_4 	ReceivedBroadcasts 	15913
scalar LocScenario.node[43].nic.mac1609_4 	SentPackets 	2040
scalar LocScenario.node[43].nic.mac1609_4 	SNIRLostPackets 	0
scalar LocScenario.node[43].nic.mac1609_4 	RXTXLostPackets 	0
scalar LocScenario.node[43].nic.mac1609_4 	TotalLostPackets 	0
scalar LocScenario.node[43].nic.mac1609_4 	DroppedPacketsInMac 	0
scalar LocScenario.node[43].nic.mac1609_4 	TooLittleTime 	0
scalar LocScenario.node[43].nic.mac1609_4 	TimesIntoBackoff 	2040
scalar LocScenario.node[43].nic.mac1609_4 	SlotsBackoff 	3072
scalar LocScenario.node[43].nic.mac1609_4 	NumInternalContention 	0
scalar LocScenario.node[43].nic.mac1609_4 	totalBusyTime 	1.869152
scalar LocScenario.node[43].veinsmobility 	startTime 	210.1
scalar LocScenario.node[43].veinsmobility 	totalTime 	203.9
scalar LocScenario.node[43].veinsmobility 	stopTime 	414.1
scalar LocScenario.node[43].veinsmobility 	minSpeed 	10.450000909984
scalar LocScenario.node[43].veinsmobility 	maxSpeed 	10.499982340168
scalar LocScenario.node[43].veinsmobility 	totalDistance 	2138.8280443277
scalar LocScenario.node[43].veinsmobility 	totalCO2Emission 	351.85481755643
scalar LocScenario.node[38].appl 	generatedWSMs 	0
scalar LocScenario.node[38].appl 	receivedWSMs 	0
scalar LocScenario.node[38].appl 	generatedBSMs 	2281
scalar LocScenario.node[38].appl 	receivedBSMs 	16892
scalar LocScenario.node[38].appl 	generatedWSAs 	0
scalar LocScenario.node[38].appl 	receivedWSAs 	0
scalar LocScenario.node[38].appl 	rmseSUMGPS 	74466.269990258
scalar LocScenario.node[38].appl 	rmseSUMCP 	675907.67839083
scalar LocScenario.node[38].appl 	delaySum 	1.9001005271458
scalar LocScenario.node[38].nic.phy80211p 	busyTime 	0.0077441473038172
scalar LocScenario.node[38].nic.mac1609_4 	ReceivedUnicastPackets 	0
scalar LocScenario.node[38].nic.mac1609_4 	ReceivedBroadcasts 	16892
scalar LocScenario.node[38].nic.mac1609_4 	SentPackets 	2281
scalar LocScenario.node[38].nic.mac1609_4 	SNIRLostPackets 	93
scalar LocScenario.node[38].nic.mac1609_4 	RXTXLostPackets 	0
scalar LocScenario.node[38].nic.mac1609_4 	TotalLostPackets 	93
scalar LocScenario.node[38].nic.mac1609_4 	DroppedPacketsInMac 	0
scalar LocScenario.node[38].nic.mac1609_4 	TooLittleTime 	0
scalar LocScenario.node[38].nic.mac1609_4 	TimesIntoBackoff 	2281
scalar LocScenario.node[38].nic.mac1609_4 	SlotsBackoff 	3489
scalar LocScenario.node[38].nic.mac1609_4 	NumInternalContention 	0
scalar LocScenario.node[38].nic.mac1609_4 	totalBusyTime 	1.998769
scalar LocScenario.node[38].veinsmobility 	startTime 	190.1
scalar LocScenario.node[38].veinsmobility 	totalTime 	228
scalar LocScenario.node[38].veinsmobility 	stopTime 	418.2
scalar LocScenario.node[38].veinsmobility 	minSpeed 	10.450006424659
scalar LocScenario.node[38].veinsmobility 	maxSpeed 	10.499980697676
scalar LocScenario.node[38].veinsmobility 	totalDistance 	2394.7792732868
scalar LocScenario.node[38].veinsmobility 	totalCO2Emission 	393.68079857733
scalar LocScenario.node[45].appl 	generatedWSMs 	0
scalar LocScenario.node[45].appl 	receivedWSMs 	0
scalar LocScenario.node[45].appl 	generatedBSMs 	2040
scalar LocScenario.node[45].appl 	receivedBSMs 	15940
scalar LocScenario.node[45].appl 	generatedWSAs 	0
scalar LocScenario.node[45].appl 	receivedWSAs 	0
scalar LocScenario.node[45].appl 	rmseSUMGPS 	653470.32512722
scalar LocScenario.node[45].appl 	rmseSUMCP 	650466.16491817
scalar LocScenario.node[45].appl 	delaySum 	1.8090872356915
scalar LocScenario.node[45].nic.phy80211p 	busyTime 	0.0081364705882383
scalar LocScenario.node[45].nic.mac1609_4 	ReceivedUnicastPackets 	0
scalar LocScenario.node[45].nic.mac1609_4 	ReceivedBroadcasts 	15940
scalar LocScenario.node[45].nic.mac1609_4 	SentPackets 	2040
scalar LocScenario.node[45].nic.mac1609_4 	SNIRLostPackets 	20
scalar LocScenario.node[45].nic.mac1609_4 	RXTXLostPackets 	0
scalar LocScenario.node[45].nic.mac1609_4 	TotalLostPackets 	20
scalar LocScenario.node[45].nic.mac1609_4 	DroppedPacketsInMac 	0
scalar LocScenario.node[45].nic.mac1609_4 	TooLittleTime 	0
[...]
scalar LocScenario.node[586].veinsmobility 	totalTime 	228
scalar LocScenario.node[586].veinsmobility 	stopTime 	3158.2
scalar LocScenario.node[586].veinsmobility 	minSpeed 	10.450000304857
scalar LocScenario.node[586].veinsmobility 	maxSpeed 	10.499973910546
scalar LocScenario.node[586].veinsmobility 	totalDistance 	2394.5925877309
scalar LocScenario.node[586].veinsmobility 	totalCO2Emission 	393.15593067537
scalar LocScenario.node[593].appl 	generatedWSMs 	0
scalar LocScenario.node[593].appl 	receivedWSMs 	0
scalar LocScenario.node[593].appl 	generatedBSMs 	2040
scalar LocScenario.node[593].appl 	receivedBSMs 	12522
scalar LocScenario.node[593].appl 	generatedWSAs 	0
scalar LocScenario.node[593].appl 	receivedWSAs 	0
scalar LocScenario.node[593].appl 	rmseSUMGPS 	329813.03072174
scalar LocScenario.node[593].appl 	rmseSUMCP 	1046643.483683
scalar LocScenario.node[593].appl 	delaySum 	16.536434326293
scalar LocScenario.node[593].nic.phy80211p 	busyTime 	0.0063837647058836
scalar LocScenario.node[593].nic.mac1609_4 	ReceivedUnicastPackets 	0
scalar LocScenario.node[593].nic.mac1609_4 	ReceivedBroadcasts 	12522
scalar LocScenario.node[593].nic.mac1609_4 	SentPackets 	2040
scalar LocScenario.node[593].nic.mac1609_4 	SNIRLostPackets 	0
scalar LocScenario.node[593].nic.mac1609_4 	RXTXLostPackets 	0
scalar LocScenario.node[593].nic.mac1609_4 	TotalLostPackets 	0
scalar LocScenario.node[593].nic.mac1609_4 	DroppedPacketsInMac 	0
scalar LocScenario.node[593].nic.mac1609_4 	TooLittleTime 	0
scalar LocScenario.node[593].nic.mac1609_4 	TimesIntoBackoff 	2040
scalar LocScenario.node[593].nic.mac1609_4 	SlotsBackoff 	3089
scalar LocScenario.node[593].nic.mac1609_4 	NumInternalContention 	0
scalar LocScenario.node[593].nic.mac1609_4 	totalBusyTime 	1.516488
scalar LocScenario.node[593].veinsmobility 	startTime 	2960.1
scalar LocScenario.node[593].veinsmobility 	totalTime 	203.9
scalar LocScenario.node[593].veinsmobility 	stopTime 	3164.1
scalar LocScenario.node[593].veinsmobility 	minSpeed 	10.450008867495
scalar LocScenario.node[593].veinsmobility 	maxSpeed 	10.499996230775
scalar LocScenario.node[593].veinsmobility 	totalDistance 	2138.6719169745
scalar LocScenario.node[593].veinsmobility 	totalCO2Emission 	351.98905739889
scalar LocScenario.node[588].appl 	generatedWSMs 	0
scalar LocScenario.node[588].appl 	receivedWSMs 	0
scalar LocScenario.node[588].appl 	generatedBSMs 	2281
scalar LocScenario.node[588].appl 	receivedBSMs 	13814
scalar LocScenario.node[588].appl 	generatedWSAs 	0
scalar LocScenario.node[588].appl 	receivedWSAs 	0
scalar LocScenario.node[588].appl 	rmseSUMGPS 	869548.8130811
scalar LocScenario.node[588].appl 	rmseSUMCP 	32117301.510031
scalar LocScenario.node[588].appl 	delaySum 	3.3339502160002
scalar LocScenario.node[588].nic.phy80211p 	busyTime 	0.0062983603682612
scalar LocScenario.node[588].nic.mac1609_4 	ReceivedUnicastPackets 	0
scalar LocScenario.node[588].nic.mac1609_4 	ReceivedBroadcasts 	13814
scalar LocScenario.node[588].nic.mac1609_4 	SentPackets 	2281
scalar LocScenario.node[588].nic.mac1609_4 	SNIRLostPackets 	0
scalar LocScenario.node[588].nic.mac1609_4 	RXTXLostPackets 	0
scalar LocScenario.node[588].nic.mac1609_4 	TotalLostPackets 	0
scalar LocScenario.node[588].nic.mac1609_4 	DroppedPacketsInMac 	0
scalar LocScenario.node[588].nic.mac1609_4 	TooLittleTime 	0
scalar LocScenario.node[588].nic.mac1609_4 	TimesIntoBackoff 	2281
scalar LocScenario.node[588].nic.mac1609_4 	SlotsBackoff 	3439
scalar LocScenario.node[588].nic.mac1609_4 	NumInternalContention 	0
scalar LocScenario.node[588].nic.mac1609_4 	totalBusyTime 	1.676161
scalar LocScenario.node[588].veinsmobility 	startTime 	2940.1
scalar LocScenario.node[588].veinsmobility 	totalTime 	228
scalar LocScenario.node[588].veinsmobility 	stopTime 	3168.2
scalar LocScenario.node[588].veinsmobility 	minSpeed 	10.450000999356
scalar LocScenario.node[588].veinsmobility 	maxSpeed 	10.499982738215
scalar LocScenario.node[588].veinsmobility 	totalDistance 	2388.7455954001
scalar LocScenario.node[588].veinsmobility 	totalCO2Emission 	394.40806634462
scalar LocScenario.node[595].appl 	generatedWSMs 	0
scalar LocScenario.node[595].appl 	receivedWSMs 	0
scalar LocScenario.node[595].appl 	generatedBSMs 	2040
scalar LocScenario.node[595].appl 	receivedBSMs 	12310
scalar LocScenario.node[595].appl 	generatedWSAs 	0
scalar LocScenario.node[595].appl 	receivedWSAs 	0
scalar LocScenario.node[595].appl 	rmseSUMGPS 	653404.95414494
scalar LocScenario.node[595].appl 	rmseSUMCP 	1088263.1901473
scalar LocScenario.node[595].appl 	delaySum 	-2.7249820302987e+77
scalar LocScenario.node[595].nic.phy80211p 	busyTime 	0.0062756862745109
scalar LocScenario.node[595].nic.mac1609_4 	ReceivedUnicastPackets 	0
scalar LocScenario.node[595].nic.mac1609_4 	ReceivedBroadcasts 	12310
scalar LocScenario.node[595].nic.mac1609_4 	SentPackets 	2040
scalar LocScenario.node[595].nic.mac1609_4 	SNIRLostPackets 	0
scalar LocScenario.node[595].nic.mac1609_4 	RXTXLostPackets 	0
scalar LocScenario.node[595].nic.mac1609_4 	TotalLostPackets 	0
scalar LocScenario.node[595].nic.mac1609_4 	DroppedPacketsInMac 	0
scalar LocScenario.node[595].nic.mac1609_4 	TooLittleTime 	0
scalar LocScenario.node[595].nic.mac1609_4 	TimesIntoBackoff 	2040
scalar LocScenario.node[595].nic.mac1609_4 	SlotsBackoff 	3080
scalar LocScenario.node[595].nic.mac1609_4 	NumInternalContention 	0
scalar LocScenario.node[595].nic.mac1609_4 	totalBusyTime 	1.49444
scalar LocScenario.node[595].veinsmobility 	startTime 	2970.1
scalar LocScenario.node[595].veinsmobility 	totalTime 	203.9
scalar LocScenario.node[595].veinsmobility 	stopTime 	3174.1
scalar LocScenario.node[595].veinsmobility 	minSpeed 	10.450007673353
scalar LocScenario.node[595].veinsmobility 	maxSpeed 	10.49999121927
scalar LocScenario.node[595].veinsmobility 	totalDistance 	2133.8384803172
scalar LocScenario.node[595].veinsmobility 	totalCO2Emission 	351.99142683132
scalar LocScenario.node[590].appl 	generatedWSMs 	0
scalar LocScenario.node[590].appl 	receivedWSMs 	0
scalar LocScenario.node[590].appl 	generatedBSMs 	2281
scalar LocScenario.node[590].appl 	receivedBSMs 	13592
scalar LocScenario.node[590].appl 	generatedWSAs 	0
scalar LocScenario.node[590].appl 	receivedWSAs 	0
scalar LocScenario.node[590].appl 	rmseSUMGPS 	54065.995816668
scalar LocScenario.node[590].appl 	rmseSUMCP 	39415376.354402
scalar LocScenario.node[590].appl 	delaySum 	10.710688094472
scalar LocScenario.node[590].nic.phy80211p 	busyTime 	0.006197141604561
scalar LocScenario.node[590].nic.mac1609_4 	ReceivedUnicastPackets 	0
scalar LocScenario.node[590].nic.mac1609_4 	ReceivedBroadcasts 	13592
scalar LocScenario.node[590].nic.mac1609_4 	SentPackets 	2281
scalar LocScenario.node[590].nic.mac1609_4 	SNIRLostPackets 	0
scalar LocScenario.node[590].nic.mac1609_4 	RXTXLostPackets 	0
scalar LocScenario.node[590].nic.mac1609_4 	TotalLostPackets 	0
scalar LocScenario.node[590].nic.mac1609_4 	DroppedPacketsInMac 	0
scalar LocScenario.node[590].nic.mac1609_4 	TooLittleTime 	0
scalar LocScenario.node[590].nic.mac1609_4 	TimesIntoBackoff 	2281
scalar LocScenario.node[590].nic.mac1609_4 	SlotsBackoff 	3375
scalar LocScenario.node[590].nic.mac1609_4 	NumInternalContention 	0
scalar LocScenario.node[590].nic.mac1609_4 	totalBusyTime 	1.653073
scalar LocScenario.node[590].veinsmobility 	startTime 	2950.1
scalar LocScenario.node[590].veinsmobility 	totalTime 	228
scalar LocScenario.node[590].veinsmobility 	stopTime 	3178.2
scalar LocScenario.node[590].veinsmobility 	minSpeed 	10.450080522161
scalar LocScenario.node[590].veinsmobility 	maxSpeed 	10.499996898405
scalar LocScenario.node[590].veinsmobility 	totalDistance 	2392.3784416502
scalar LocScenario.node[590].veinsmobility 	totalCO2Emission 	393.7868232306
scalar LocScenario.node[597].appl 	generatedWSMs 	0
scalar LocScenario.node[597].appl 	receivedWSMs 	0
scalar LocScenario.node[597].appl 	generatedBSMs 	2040
scalar LocScenario.node[597].appl 	receivedBSMs 	10360
scalar LocScenario.node[597].appl 	generatedWSAs 	0
scalar LocScenario.node[597].appl 	receivedWSAs 	0
scalar LocScenario.node[597].appl 	rmseSUMGPS 	711229.87721999
scalar LocScenario.node[597].appl 	rmseSUMCP 	1999000.1882685
scalar LocScenario.node[597].appl 	delaySum 	1.1584520167798
scalar LocScenario.node[597].nic.phy80211p 	busyTime 	0.0052815686274511
scalar LocScenario.node[597].nic.mac1609_4 	ReceivedUnicastPackets 	0
scalar LocScenario.node[597].nic.mac1609_4 	ReceivedBroadcasts 	10360
scalar LocScenario.node[597].nic.mac1609_4 	SentPackets 	2040
scalar LocScenario.node[597].nic.mac1609_4 	SNIRLostPackets 	0
scalar LocScenario.node[597].nic.mac1609_4 	RXTXLostPackets 	0
scalar LocScenario.node[597].nic.mac1609_4 	TotalLostPackets 	0
scalar LocScenario.node[597].nic.mac1609_4 	DroppedPacketsInMac 	0
scalar LocScenario.node[597].nic.mac1609_4 	TooLittleTime 	0
scalar LocScenario.node[597].nic.mac1609_4 	TimesIntoBackoff 	2040
scalar LocScenario.node[597].nic.mac1609_4 	SlotsBackoff 	3083
scalar LocScenario.node[597].nic.mac1609_4 	NumInternalContention 	0
scalar LocScenario.node[597].nic.mac1609_4 	totalBusyTime 	1.29164
scalar LocScenario.node[597].veinsmobility 	startTime 	2980.1
scalar LocScenario.node[597].veinsmobility 	totalTime 	203.9
scalar LocScenario.node[597].veinsmobility 	stopTime 	3184.1
scalar LocScenario.node[597].veinsmobility 	minSpeed 	10.450032634544
scalar LocScenario.node[597].veinsmobility 	maxSpeed 	10.4999714926
scalar LocScenario.node[597].veinsmobility 	totalDistance 	2133.8474225142
scalar LocScenario.node[597].veinsmobility 	totalCO2Emission 	351.59253622942
scalar LocScenario.node[592].appl 	generatedWSMs 	0
scalar LocScenario.node[592].appl 	receivedWSMs 	0
scalar LocScenario.node[592].appl 	generatedBSMs 	2281
scalar LocScenario.node[592].appl 	receivedBSMs 	13342
scalar LocScenario.node[592].appl 	generatedWSAs 	0
scalar LocScenario.node[592].appl 	receivedWSAs 	0
scalar LocScenario.node[592].appl 	rmseSUMGPS 	56677.205049328
scalar LocScenario.node[592].appl 	rmseSUMCP 	51054533.717821
scalar LocScenario.node[592].appl 	delaySum 	5.1867257721788
scalar LocScenario.node[592].nic.phy80211p 	busyTime 	0.0060959228408607
scalar LocScenario.node[592].nic.mac1609_4 	ReceivedUnicastPackets 	0
scalar LocScenario.node[592].nic.mac1609_4 	ReceivedBroadcasts 	13342
scalar LocScenario.node[592].nic.mac1609_4 	SentPackets 	2281
scalar LocScenario.node[592].nic.mac1609_4 	SNIRLostPackets 	28
scalar LocScenario.node[592].nic.mac1609_4 	RXTXLostPackets 	0
scalar LocScenario.node[592].nic.mac1609_4 	TotalLostPackets 	28
scalar LocScenario.node[592].nic.mac1609_4 	DroppedPacketsInMac 	0
scalar LocScenario.node[592].nic.mac1609_4 	TooLittleTime 	0
scalar LocScenario.node[592].nic.mac1609_4 	TimesIntoBackoff 	2281
scalar LocScenario.node[592].nic.mac1609_4 	SlotsBackoff 	3467
scalar LocScenario.node[592].nic.mac1609_4 	NumInternalContention 	0
scalar LocScenario.node[592].nic.mac1609_4 	totalBusyTime 	1.629985
scalar LocScenario.node[592].veinsmobility 	startTime 	2960.1
scalar LocScenario.node[592].veinsmobility 	totalTime 	228
scalar LocScenario.node[592].veinsmobility 	stopTime 	3188.2
scalar LocScenario.node[592].veinsmobility 	minSpeed 	10.450002979767
scalar LocScenario.node[592].veinsmobility 	maxSpeed 	10.49999646981
scalar LocScenario.node[592].veinsmobility 	totalDistance 	2392.2646352014
scalar LocScenario.node[592].veinsmobility 	totalCO2Emission 	393.06144656544
scalar LocScenario.node[599].appl 	generatedWSMs 	0
scalar LocScenario.node[599].appl 	receivedWSMs 	0
scalar LocScenario.node[599].appl 	generatedBSMs 	2040
scalar LocScenario.node[599].appl 	receivedBSMs 	8201
scalar LocScenario.node[599].appl 	generatedWSAs 	0
scalar LocScenario.node[599].appl 	receivedWSAs 	0
scalar LocScenario.node[599].appl 	rmseSUMGPS 	869976.77785917
scalar LocScenario.node[599].appl 	rmseSUMCP 	1547152.3586097
scalar LocScenario.node[599].appl 	delaySum 	6.2961954357188
scalar LocScenario.node[599].nic.phy80211p 	busyTime 	0.0041809019607841
scalar LocScenario.node[599].nic.mac1609_4 	ReceivedUnicastPackets 	0
scalar LocScenario.node[599].nic.mac1609_4 	ReceivedBroadcasts 	8201
scalar LocScenario.node[599].nic.mac1609_4 	SentPackets 	2040
scalar LocScenario.node[599].nic.mac1609_4 	SNIRLostPackets 	0
scalar LocScenario.node[599].nic.mac1609_4 	RXTXLostPackets 	0
scalar LocScenario.node[599].nic.mac1609_4 	TotalLostPackets 	0
scalar LocScenario.node[599].nic.mac1609_4 	DroppedPacketsInMac 	0
scalar LocScenario.node[599].nic.mac1609_4 	TooLittleTime 	0
scalar LocScenario.node[599].nic.mac1609_4 	TimesIntoBackoff 	2040
scalar LocScenario.node[599].nic.mac1609_4 	SlotsBackoff 	3080
scalar LocScenario.node[599].nic.mac1609_4 	NumInternalContention 	0
scalar LocScenario.node[599].nic.mac1609_4 	totalBusyTime 	1.067104
scalar LocScenario.node[599].veinsmobility 	startTime 	2990.1
scalar LocScenario.node[599].veinsmobility 	totalTime 	203.9
scalar LocScenario.node[599].veinsmobility 	stopTime 	3194.1
scalar LocScenario.node[599].veinsmobility 	minSpeed 	10.450031160191
scalar LocScenario.node[599].veinsmobility 	maxSpeed 	10.499971092085
scalar LocScenario.node[599].veinsmobility 	totalDistance 	2138.7562833574
scalar LocScenario.node[599].veinsmobility 	totalCO2Emission 	351.80556567589
scalar LocScenario.node[594].appl 	generatedWSMs 	0
scalar LocScenario.node[594].appl 	receivedWSMs 	0
scalar LocScenario.node[594].appl 	generatedBSMs 	2281
scalar LocScenario.node[594].appl 	receivedBSMs 	12944
scalar LocScenario.node[594].appl 	generatedWSAs 	0
scalar LocScenario.node[594].appl 	receivedWSAs 	0
scalar LocScenario.node[594].appl 	rmseSUMGPS 	114868.76742087
scalar LocScenario.node[594].appl 	rmseSUMCP 	61551295.708826
scalar LocScenario.node[594].appl 	delaySum 	19.866948581542
scalar LocScenario.node[594].nic.phy80211p 	busyTime 	0.0059951600175375
scalar LocScenario.node[594].nic.mac1609_4 	ReceivedUnicastPackets 	0
scalar LocScenario.node[594].nic.mac1609_4 	ReceivedBroadcasts 	12944
scalar LocScenario.node[594].nic.mac1609_4 	SentPackets 	2281
scalar LocScenario.node[594].nic.mac1609_4 	SNIRLostPackets 	205
scalar LocScenario.node[594].nic.mac1609_4 	RXTXLostPackets 	0
scalar LocScenario.node[594].nic.mac1609_4 	TotalLostPackets 	205
scalar LocScenario.node[594].nic.mac1609_4 	DroppedPacketsInMac 	0
scalar LocScenario.node[594].nic.mac1609_4 	TooLittleTime 	0
scalar LocScenario.node[594].nic.mac1609_4 	TimesIntoBackoff 	2281
scalar LocScenario.node[594].nic.mac1609_4 	SlotsBackoff 	3437
scalar LocScenario.node[594].nic.mac1609_4 	NumInternalContention 	0
scalar LocScenario.node[594].nic.mac1609_4 	totalBusyTime 	1.596809
scalar LocScenario.node[594].veinsmobility 	startTime 	2970.1
scalar LocScenario.node[594].veinsmobility 	totalTime 	228
scalar LocScenario.node[594].veinsmobility 	stopTime 	3198.2
scalar LocScenario.node[594].veinsmobility 	minSpeed 	10.450012831762
scalar LocScenario.node[594].veinsmobility 	maxSpeed 	10.499990413105
scalar LocScenario.node[594].veinsmobility 	totalDistance 	2392.3451959335
scalar LocScenario.node[594].veinsmobility 	totalCO2Emission 	392.63775020128
scalar LocScenario.node[596].appl 	generatedWSMs 	0
scalar LocScenario.node[596].appl 	receivedWSMs 	0
scalar LocScenario.node[596].appl 	generatedBSMs 	2281
scalar LocScenario.node[596].appl 	receivedBSMs 	10816
scalar LocScenario.node[596].appl 	generatedWSAs 	0
scalar LocScenario.node[596].appl 	receivedWSAs 	0
scalar LocScenario.node[596].appl 	rmseSUMGPS 	569858.27795458
scalar LocScenario.node[596].appl 	rmseSUMCP 	3492956.4229577
scalar LocScenario.node[596].appl 	delaySum 	15.841804690376
scalar LocScenario.node[596].nic.phy80211p 	busyTime 	0.0049779570363879
scalar LocScenario.node[596].nic.mac1609_4 	ReceivedUnicastPackets 	0
scalar LocScenario.node[596].nic.mac1609_4 	ReceivedBroadcasts 	10816
scalar LocScenario.node[596].nic.mac1609_4 	SentPackets 	2281
scalar LocScenario.node[596].nic.mac1609_4 	SNIRLostPackets 	102
scalar LocScenario.node[596].nic.mac1609_4 	RXTXLostPackets 	0
scalar LocScenario.node[596].nic.mac1609_4 	TotalLostPackets 	102
scalar LocScenario.node[596].nic.mac1609_4 	DroppedPacketsInMac 	0
scalar LocScenario.node[596].nic.mac1609_4 	TooLittleTime 	0
scalar LocScenario.node[596].nic.mac1609_4 	TimesIntoBackoff 	2281
scalar LocScenario.node[596].nic.mac1609_4 	SlotsBackoff 	3497
scalar LocScenario.node[596].nic.mac1609_4 	NumInternalContention 	0
scalar LocScenario.node[596].nic.mac1609_4 	totalBusyTime 	1.369673
scalar LocScenario.node[596].veinsmobility 	startTime 	2980.1
scalar LocScenario.node[596].veinsmobility 	totalTime 	228
scalar LocScenario.node[596].veinsmobility 	stopTime 	3208.2
scalar LocScenario.node[596].veinsmobility 	minSpeed 	10.450005173043
scalar LocScenario.node[596].veinsmobility 	maxSpeed 	10.499983754649
scalar LocScenario.node[596].veinsmobility 	totalDistance 	2388.6761250532
scalar LocScenario.node[596].veinsmobility 	totalCO2Emission 	393.45806431414
scalar LocScenario.node[598].appl 	generatedWSMs 	0
scalar LocScenario.node[598].appl 	receivedWSMs 	0
scalar LocScenario.node[598].appl 	generatedBSMs 	2281
scalar LocScenario.node[598].appl 	receivedBSMs 	8516
scalar LocScenario.node[598].appl 	generatedWSAs 	0
scalar LocScenario.node[598].appl 	receivedWSAs 	0
scalar LocScenario.node[598].appl 	rmseSUMGPS 	810307.33464029
scalar LocScenario.node[598].appl 	rmseSUMCP 	1556693.5846377
scalar LocScenario.node[598].appl 	delaySum 	2.8584676600899
scalar LocScenario.node[598].nic.phy80211p 	busyTime 	0.003882788250767
scalar LocScenario.node[598].nic.mac1609_4 	ReceivedUnicastPackets 	0
scalar LocScenario.node[598].nic.mac1609_4 	ReceivedBroadcasts 	8516
scalar LocScenario.node[598].nic.mac1609_4 	SentPackets 	2281
scalar LocScenario.node[598].nic.mac1609_4 	SNIRLostPackets 	0
scalar LocScenario.node[598].nic.mac1609_4 	RXTXLostPackets 	0
scalar LocScenario.node[598].nic.mac1609_4 	TotalLostPackets 	0
scalar LocScenario.node[598].nic.mac1609_4 	DroppedPacketsInMac 	0
scalar LocScenario.node[598].nic.mac1609_4 	TooLittleTime 	0
scalar LocScenario.node[598].nic.mac1609_4 	TimesIntoBackoff 	2501
scalar LocScenario.node[598].nic.mac1609_4 	SlotsBackoff 	3783
scalar LocScenario.node[598].nic.mac1609_4 	NumInternalContention 	0
scalar LocScenario.node[598].nic.mac1609_4 	totalBusyTime 	1.125169
scalar LocScenario.node[598].veinsmobility 	startTime 	2990.1
scalar LocScenario.node[598].veinsmobility 	totalTime 	228
scalar LocScenario.node[598].veinsmobility 	stopTime 	3218.2
scalar LocScenario.node[598].veinsmobility 	minSpeed 	10.45003446039
scalar LocScenario.node[598].veinsmobility 	maxSpeed 	10.499996870139
scalar LocScenario.node[598].veinsmobility 	totalDistance 	2394.6831626408
scalar LocScenario.node[598].veinsmobility 	totalCO2Emission 	393.96020477569
scalar LocScenario.outagesServer.appl 	generatedWSMs 	0
scalar LocScenario.outagesServer.appl 	receivedWSMs 	0
scalar LocScenario.outagesServer.appl 	generatedBSMs 	0
scalar LocScenario.outagesServer.appl 	receivedBSMs 	0
scalar LocScenario.outagesServer.appl 	generatedWSAs 	0
scalar LocScenario.outagesServer.appl 	receivedWSAs 	0
scalar LocScenario.outagesServer.nic.phy80211p 	busyTime 	0
scalar LocScenario.outagesServer.nic.mac1609_4 	ReceivedUnicastPackets 	0
scalar LocScenario.outagesServer.nic.mac1609_4 	ReceivedBroadcasts 	0
scalar LocScenario.outagesServer.nic.mac1609_4 	SentPackets 	0
scalar LocScenario.outagesServer.nic.mac1609_4 	SNIRLostPackets 	0
scalar LocScenario.outagesServer.nic.mac1609_4 	RXTXLostPackets 	0
scalar LocScenario.outagesServer.nic.mac1609_4 	TotalLostPackets 	0
scalar LocScenario.outagesServer.nic.mac1609_4 	DroppedPacketsInMac 	0
scalar LocScenario.outagesServer.nic.mac1609_4 	TooLittleTime 	0
scalar LocScenario.outagesServer.nic.mac1609_4 	TimesIntoBackoff 	0
scalar LocScenario.outagesServer.nic.mac1609_4 	SlotsBackoff 	0
scalar LocScenario.outagesServer.nic.mac1609_4 	NumInternalContention 	0
scalar LocScenario.outagesServer.nic.mac1609_4 	totalBusyTime 	0
