version 2
run DMAT-13-20171112-00:54:56-14845
attr configname DMAT
attr datetime 20171112-00:54:56
attr experiment DMAT
attr hops 2
attr inifile omnetpp.ini
attr iterationvars "$logVehPeriod=15, $hops=2"
attr iterationvars2 "$logVehPeriod=15, $hops=2, $repetition=3"
attr logVehPeriod 15
attr measurement "$logVehPeriod=15, $hops=2"
attr network com.liborio.cooppos.LocScenario
attr processid 14845
attr repetition 3
attr replication #3
attr resultdir results
attr runnumber 13
attr seedset 3
param **.coreDebug false
param **.debug false
param *.annotations.draw false
param *.connectionManager.drawMaxIntfDist false
param *.connectionManager.maxInterfDist 600m
param *.connectionManager.sendDirect true
param *.manager.autoShutdown true
param *.manager.host "\"localhost\""
param *.manager.launchConfig "xmldoc(\"dmat-\"+string(${logVehPeriod = 15, 10, 5, 3, 1})+\".launchd.xml\")"
param *.manager.port 9999
param *.manager.updateInterval 0.1s
param *.node[*].appl.beaconInterval 0.1s
param *.node[*].appl.dataOnSch false
param *.node[*].appl.headerLength "80 bit"
param *.node[*].appl.hops "${hops = 1, 2, 3, 4, 5}"
param *.node[*].appl.logVehPeriod ${logVehPeriod}
param *.node[*].appl.seedPar ${repetition}
param *.node[*].appl.sendBeacons true
param *.node[*].applType "\"Communication\""
param *.node[*].nic.mac1609_4.bitrate 6Mbps
param *.node[*].nic.mac1609_4.txPower 20mW
param *.node[*].nic.mac1609_4.useServiceChannel false
param *.node[*].nic.phy80211p.analogueModels "xmldoc(\"config.xml\")"
param *.node[*].nic.phy80211p.antenna "xmldoc(\"antenna.xml\", \"/root/Antenna[@id='monopole']\")"
param *.node[*].nic.phy80211p.decider "xmldoc(\"config.xml\")"
param *.node[*].nic.phy80211p.sensitivity -84.39dBm
param *.node[*].nic.phy80211p.thermalNoise -110dBm
param *.node[*].nic.phy80211p.usePropagationDelay true
param *.node[*].nic.phy80211p.useThermalNoise true
param *.node[*].veinsmobility.x 0
param *.node[*].veinsmobility.y 0
param *.node[*].veinsmobility.z 1.895
param *.node[*].veinsmobilityType.debug true
param *.outagesServer.appl.beaconInterval 0.1s
param *.outagesServer.appl.beaconPriority 3
param *.outagesServer.appl.dataOnSch false
param *.outagesServer.appl.dataPriority 2
param *.outagesServer.appl.headerLength "80 bit"
param *.outagesServer.appl.sendBeacons false
param *.outagesServer.applType "\"Outages\""
param *.outagesServer.mobility.x 5000.0
param *.outagesServer.mobility.y 5000.0
param *.outagesServer.mobility.z 3
param *.outagesServer.nic.mac1609_4.bitrate 6Mbps
param *.outagesServer.nic.mac1609_4.txPower 20mW
param *.outagesServer.nic.mac1609_4.useServiceChannel false
param *.outagesServer.nic.phy80211p.analogueModels "xmldoc(\"config.xml\")"
param *.outagesServer.nic.phy80211p.antenna "xmldoc(\"antenna.xml\", \"/root/Antenna[@id='monopole']\")"
param *.outagesServer.nic.phy80211p.decider "xmldoc(\"config.xml\")"
param *.outagesServer.nic.phy80211p.sensitivity -84.39dBm
param *.outagesServer.nic.phy80211p.thermalNoise -110dBm
param *.outagesServer.nic.phy80211p.usePropagationDelay true
param *.outagesServer.nic.phy80211p.useThermalNoise true
param *.playgroundSizeX 20000m
param *.playgroundSizeY 20000m
param *.playgroundSizeZ 50m

scalar . 	hops 	2
scalar . 	logVehPeriod 	15
scalar LocScenario.node[1].appl 	generatedWSMs 	0
scalar LocScenario.node[1].appl 	receivedWSMs 	0
scalar LocScenario.node[1].appl 	generatedBSMs 	2040
scalar LocScenario.node[1].appl 	receivedBSMs 	4818
scalar LocScenario.node[1].appl 	generatedWSAs 	0
scalar LocScenario.node[1].appl 	receivedWSAs 	0
scalar LocScenario.node[1].appl 	rmseSUMGPS 	572615.57650041
scalar LocScenario.node[1].appl 	rmseSUMCP 	500137.28189997
scalar LocScenario.node[1].appl 	delaySum 	0.54019227560411
scalar LocScenario.node[1].nic.phy80211p 	busyTime 	0.0024562352941175
scalar LocScenario.node[1].nic.mac1609_4 	ReceivedUnicastPackets 	0
scalar LocScenario.node[1].nic.mac1609_4 	ReceivedBroadcasts 	4818
scalar LocScenario.node[1].nic.mac1609_4 	SentPackets 	2040
scalar LocScenario.node[1].nic.mac1609_4 	SNIRLostPackets 	0
scalar LocScenario.node[1].nic.mac1609_4 	RXTXLostPackets 	0
scalar LocScenario.node[1].nic.mac1609_4 	TotalLostPackets 	0
scalar LocScenario.node[1].nic.mac1609_4 	DroppedPacketsInMac 	0
scalar LocScenario.node[1].nic.mac1609_4 	TooLittleTime 	0
scalar LocScenario.node[1].nic.mac1609_4 	TimesIntoBackoff 	2040
scalar LocScenario.node[1].nic.mac1609_4 	SlotsBackoff 	3132
scalar LocScenario.node[1].nic.mac1609_4 	NumInternalContention 	0
scalar LocScenario.node[1].nic.mac1609_4 	totalBusyTime 	0.715272
scalar LocScenario.node[1].veinsmobility 	startTime 	0.1
scalar LocScenario.node[1].veinsmobility 	totalTime 	203.9
scalar LocScenario.node[1].veinsmobility 	stopTime 	204.1
scalar LocScenario.node[1].veinsmobility 	minSpeed 	10.450163808803
scalar LocScenario.node[1].veinsmobility 	maxSpeed 	10.499979475979
scalar LocScenario.node[1].veinsmobility 	totalDistance 	2133.8319068378
scalar LocScenario.node[1].veinsmobility 	totalCO2Emission 	351.99519970012
scalar LocScenario.node[3].appl 	generatedWSMs 	0
scalar LocScenario.node[3].appl 	receivedWSMs 	0
scalar LocScenario.node[3].appl 	generatedBSMs 	2040
scalar LocScenario.node[3].appl 	receivedBSMs 	6926
scalar LocScenario.node[3].appl 	generatedWSAs 	0
scalar LocScenario.node[3].appl 	receivedWSAs 	0
scalar LocScenario.node[3].appl 	rmseSUMGPS 	985955.92000814
scalar LocScenario.node[3].appl 	rmseSUMCP 	1069366.014131
scalar LocScenario.node[3].appl 	delaySum 	0.77509940624957
scalar LocScenario.node[3].nic.phy80211p 	busyTime 	0.0035309019607841
scalar LocScenario.node[3].nic.mac1609_4 	ReceivedUnicastPackets 	0
scalar LocScenario.node[3].nic.mac1609_4 	ReceivedBroadcasts 	6926
scalar LocScenario.node[3].nic.mac1609_4 	SentPackets 	2040
scalar LocScenario.node[3].nic.mac1609_4 	SNIRLostPackets 	0
scalar LocScenario.node[3].nic.mac1609_4 	RXTXLostPackets 	0
scalar LocScenario.node[3].nic.mac1609_4 	TotalLostPackets 	0
scalar LocScenario.node[3].nic.mac1609_4 	DroppedPacketsInMac 	0
scalar LocScenario.node[3].nic.mac1609_4 	TooLittleTime 	0
scalar LocScenario.node[3].nic.mac1609_4 	TimesIntoBackoff 	2040
scalar LocScenario.node[3].nic.mac1609_4 	SlotsBackoff 	3044
scalar LocScenario.node[3].nic.mac1609_4 	NumInternalContention 	0
scalar LocScenario.node[3].nic.mac1609_4 	totalBusyTime 	0.934504
scalar LocScenario.node[3].veinsmobility 	startTime 	15.1
scalar LocScenario.node[3].veinsmobility 	totalTime 	203.9
scalar LocScenario.node[3].veinsmobility 	stopTime 	219.1
scalar LocScenario.node[3].veinsmobility 	minSpeed 	10.450013254909
scalar LocScenario.node[3].veinsmobility 	maxSpeed 	10.499992686755
scalar LocScenario.node[3].veinsmobility 	totalDistance 	2133.9147625099
scalar LocScenario.node[3].veinsmobility 	totalCO2Emission 	351.89311072842
scalar LocScenario.node[0].appl 	generatedWSMs 	0
scalar LocScenario.node[0].appl 	receivedWSMs 	0
scalar LocScenario.node[0].appl 	generatedBSMs 	2281
scalar LocScenario.node[0].appl 	receivedBSMs 	5205
scalar LocScenario.node[0].appl 	generatedWSAs 	0
scalar LocScenario.node[0].appl 	receivedWSAs 	0
scalar LocScenario.node[0].appl 	rmseSUMGPS 	133502.2420106
scalar LocScenario.node[0].appl 	rmseSUMCP 	462744.04734329
scalar LocScenario.node[0].appl 	delaySum 	0.58275581539266
scalar LocScenario.node[0].nic.phy80211p 	busyTime 	0.0023731696624287
scalar LocScenario.node[0].nic.mac1609_4 	ReceivedUnicastPackets 	0
scalar LocScenario.node[0].nic.mac1609_4 	ReceivedBroadcasts 	5205
scalar LocScenario.node[0].nic.mac1609_4 	SentPackets 	2281
scalar LocScenario.node[0].nic.mac1609_4 	SNIRLostPackets 	0
scalar LocScenario.node[0].nic.mac1609_4 	RXTXLostPackets 	0
scalar LocScenario.node[0].nic.mac1609_4 	TotalLostPackets 	0
scalar LocScenario.node[0].nic.mac1609_4 	DroppedPacketsInMac 	0
scalar LocScenario.node[0].nic.mac1609_4 	TooLittleTime 	0
scalar LocScenario.node[0].nic.mac1609_4 	TimesIntoBackoff 	2281
scalar LocScenario.node[0].nic.mac1609_4 	SlotsBackoff 	3410
scalar LocScenario.node[0].nic.mac1609_4 	NumInternalContention 	0
scalar LocScenario.node[0].nic.mac1609_4 	totalBusyTime 	0.780825
scalar LocScenario.node[0].veinsmobility 	startTime 	0.1
scalar LocScenario.node[0].veinsmobility 	totalTime 	228
scalar LocScenario.node[0].veinsmobility 	stopTime 	228.2
scalar LocScenario.node[0].veinsmobility 	minSpeed 	10.45002839535
scalar LocScenario.node[0].veinsmobility 	maxSpeed 	10.499999398098
scalar LocScenario.node[0].veinsmobility 	totalDistance 	2394.6314876541
scalar LocScenario.node[0].veinsmobility 	totalCO2Emission 	393.06731729645
scalar LocScenario.node[5].appl 	generatedWSMs 	0
scalar LocScenario.node[5].appl 	receivedWSMs 	0
scalar LocScenario.node[5].appl 	generatedBSMs 	2040
scalar LocScenario.node[5].appl 	receivedBSMs 	7151
scalar LocScenario.node[5].appl 	generatedWSAs 	0
scalar LocScenario.node[5].appl 	receivedWSAs 	0
scalar LocScenario.node[5].appl 	rmseSUMGPS 	1040744.1950387
scalar LocScenario.node[5].appl 	rmseSUMCP 	1029090.7539443
scalar LocScenario.node[5].appl 	delaySum 	0.80098086563392
scalar LocScenario.node[5].nic.phy80211p 	busyTime 	0.0036456078431371
scalar LocScenario.node[5].nic.mac1609_4 	ReceivedUnicastPackets 	0
scalar LocScenario.node[5].nic.mac1609_4 	ReceivedBroadcasts 	7151
scalar LocScenario.node[5].nic.mac1609_4 	SentPackets 	2040
scalar LocScenario.node[5].nic.mac1609_4 	SNIRLostPackets 	0
scalar LocScenario.node[5].nic.mac1609_4 	RXTXLostPackets 	0
scalar LocScenario.node[5].nic.mac1609_4 	TotalLostPackets 	0
scalar LocScenario.node[5].nic.mac1609_4 	DroppedPacketsInMac 	0
scalar LocScenario.node[5].nic.mac1609_4 	TooLittleTime 	0
scalar LocScenario.node[5].nic.mac1609_4 	TimesIntoBackoff 	2040
scalar LocScenario.node[5].nic.mac1609_4 	SlotsBackoff 	3105
scalar LocScenario.node[5].nic.mac1609_4 	NumInternalContention 	0
scalar LocScenario.node[5].nic.mac1609_4 	totalBusyTime 	0.957904
scalar LocScenario.node[5].veinsmobility 	startTime 	30.1
scalar LocScenario.node[5].veinsmobility 	totalTime 	203.9
scalar LocScenario.node[5].veinsmobility 	stopTime 	234.1
scalar LocScenario.node[5].veinsmobility 	minSpeed 	10.450009167311
scalar LocScenario.node[5].veinsmobility 	maxSpeed 	10.499993564549
scalar LocScenario.node[5].veinsmobility 	totalDistance 	2138.7466803569
scalar LocScenario.node[5].veinsmobility 	totalCO2Emission 	351.8144719346
scalar LocScenario.node[2].appl 	generatedWSMs 	0
scalar LocScenario.node[2].appl 	receivedWSMs 	0
scalar LocScenario.node[2].appl 	generatedBSMs 	2281
scalar LocScenario.node[2].appl 	receivedBSMs 	7557
scalar LocScenario.node[2].appl 	generatedWSAs 	0
scalar LocScenario.node[2].appl 	receivedWSAs 	0
scalar LocScenario.node[2].appl 	rmseSUMGPS 	22859.715514929
scalar LocScenario.node[2].appl 	rmseSUMCP 	215031.12790606
scalar LocScenario.node[2].appl 	delaySum 	0.84669698690937
scalar LocScenario.node[2].nic.phy80211p 	busyTime 	0.0034455414291975
scalar LocScenario.node[2].nic.mac1609_4 	ReceivedUnicastPackets 	0
scalar LocScenario.node[2].nic.mac1609_4 	ReceivedBroadcasts 	7557
scalar LocScenario.node[2].nic.mac1609_4 	SentPackets 	2281
scalar LocScenario.node[2].nic.mac1609_4 	SNIRLostPackets 	0
scalar LocScenario.node[2].nic.mac1609_4 	RXTXLostPackets 	0
scalar LocScenario.node[2].nic.mac1609_4 	TotalLostPackets 	0
scalar LocScenario.node[2].nic.mac1609_4 	DroppedPacketsInMac 	0
scalar LocScenario.node[2].nic.mac1609_4 	TooLittleTime 	0
scalar LocScenario.node[2].nic.mac1609_4 	TimesIntoBackoff 	2281
scalar LocScenario.node[2].nic.mac1609_4 	SlotsBackoff 	3432
scalar LocScenario.node[2].nic.mac1609_4 	NumInternalContention 	0
scalar LocScenario.node[2].nic.mac1609_4 	totalBusyTime 	1.025433
scalar LocScenario.node[2].veinsmobility 	startTime 	15.1
scalar LocScenario.node[2].veinsmobility 	totalTime 	228
scalar LocScenario.node[2].veinsmobility 	stopTime 	243.2
scalar LocScenario.node[2].veinsmobility 	minSpeed 	10.450010323036
scalar LocScenario.node[2].veinsmobility 	maxSpeed 	10.499999071076
scalar LocScenario.node[2].veinsmobility 	totalDistance 	2392.1896113898
scalar LocScenario.node[2].veinsmobility 	totalCO2Emission 	393.8729267381
scalar LocScenario.node[7].appl 	generatedWSMs 	0
scalar LocScenario.node[7].appl 	receivedWSMs 	0
scalar LocScenario.node[7].appl 	generatedBSMs 	2040
scalar LocScenario.node[7].appl 	receivedBSMs 	7374
scalar LocScenario.node[7].appl 	generatedWSAs 	0
scalar LocScenario.node[7].appl 	receivedWSAs 	0
scalar LocScenario.node[7].appl 	rmseSUMGPS 	855156.37564087
scalar LocScenario.node[7].appl 	rmseSUMCP 	1607240.6777002
scalar LocScenario.node[7].appl 	delaySum 	0.82569199742585
scalar LocScenario.node[7].nic.phy80211p 	busyTime 	0.0037592941176469
scalar LocScenario.node[7].nic.mac1609_4 	ReceivedUnicastPackets 	0
scalar LocScenario.node[7].nic.mac1609_4 	ReceivedBroadcasts 	7374
scalar LocScenario.node[7].nic.mac1609_4 	SentPackets 	2040
scalar LocScenario.node[7].nic.mac1609_4 	SNIRLostPackets 	0
scalar LocScenario.node[7].nic.mac1609_4 	RXTXLostPackets 	0
scalar LocScenario.node[7].nic.mac1609_4 	TotalLostPackets 	0
scalar LocScenario.node[7].nic.mac1609_4 	DroppedPacketsInMac 	0
scalar LocScenario.node[7].nic.mac1609_4 	TooLittleTime 	0
scalar LocScenario.node[7].nic.mac1609_4 	TimesIntoBackoff 	2040
scalar LocScenario.node[7].nic.mac1609_4 	SlotsBackoff 	3084
scalar LocScenario.node[7].nic.mac1609_4 	NumInternalContention 	0
scalar LocScenario.node[7].nic.mac1609_4 	totalBusyTime 	0.981096
scalar LocScenario.node[7].veinsmobility 	startTime 	45.1
scalar LocScenario.node[7].veinsmobility 	totalTime 	203.9
scalar LocScenario.node[7].veinsmobility 	stopTime 	249.1
scalar LocScenario.node[7].veinsmobility 	minSpeed 	10.450007714482
scalar LocScenario.node[7].veinsmobility 	maxSpeed 	10.499995228904
scalar LocScenario.node[7].veinsmobility 	totalDistance 	2133.8484356331
scalar LocScenario.node[7].veinsmobility 	totalCO2Emission 	352.19861544418
scalar LocScenario.node[4].appl 	generatedWSMs 	0
scalar LocScenario.node[4].appl 	receivedWSMs 	0
scalar LocScenario.node[4].appl 	generatedBSMs 	2281
scalar LocScenario.node[4].appl 	receivedBSMs 	7779
scalar LocScenario.node[4].appl 	generatedWSAs 	0
scalar LocScenario.node[4].appl 	receivedWSAs 	0
scalar LocScenario.node[4].appl 	rmseSUMGPS 	125357.9017323
scalar LocScenario.node[4].appl 	rmseSUMCP 	226942.13515384
scalar LocScenario.node[4].appl 	delaySum 	0.87025288412275
scalar LocScenario.node[4].nic.phy80211p 	busyTime 	0.0035467601928977
scalar LocScenario.node[4].nic.mac1609_4 	ReceivedUnicastPackets 	0
scalar LocScenario.node[4].nic.mac1609_4 	ReceivedBroadcasts 	7779
scalar LocScenario.node[4].nic.mac1609_4 	SentPackets 	2281
scalar LocScenario.node[4].nic.mac1609_4 	SNIRLostPackets 	0
scalar LocScenario.node[4].nic.mac1609_4 	RXTXLostPackets 	0
scalar LocScenario.node[4].nic.mac1609_4 	TotalLostPackets 	0
scalar LocScenario.node[4].nic.mac1609_4 	DroppedPacketsInMac 	0
scalar LocScenario.node[4].nic.mac1609_4 	TooLittleTime 	0
scalar LocScenario.node[4].nic.mac1609_4 	TimesIntoBackoff 	2281
scalar LocScenario.node[4].nic.mac1609_4 	SlotsBackoff 	3458
scalar LocScenario.node[4].nic.mac1609_4 	NumInternalContention 	0
scalar LocScenario.node[4].nic.mac1609_4 	totalBusyTime 	1.048521
scalar LocScenario.node[4].veinsmobility 	startTime 	30.1
scalar LocScenario.node[4].veinsmobility 	totalTime 	228
scalar LocScenario.node[4].veinsmobility 	stopTime 	258.2
scalar LocScenario.node[4].veinsmobility 	minSpeed 	10.450012883055
scalar LocScenario.node[4].veinsmobility 	maxSpeed 	10.499997946899
scalar LocScenario.node[4].veinsmobility 	totalDistance 	2392.3515748097
scalar LocScenario.node[4].veinsmobility 	totalCO2Emission 	393.29225147858
scalar LocScenario.node[9].appl 	generatedWSMs 	0
scalar LocScenario.node[9].appl 	receivedWSMs 	0
scalar LocScenario.node[9].appl 	generatedBSMs 	2040
scalar LocScenario.node[9].appl 	receivedBSMs 	7595
scalar LocScenario.node[9].appl 	generatedWSAs 	0
scalar LocScenario.node[9].appl 	receivedWSAs 	0
scalar LocScenario.node[9].appl 	rmseSUMGPS 	699095.42507095
scalar LocScenario.node[9].appl 	rmseSUMCP 	666887.29839207
scalar LocScenario.node[9].appl 	delaySum 	0.84916459545559
scalar LocScenario.node[9].nic.phy80211p 	busyTime 	0.0038719607843135
scalar LocScenario.node[9].nic.mac1609_4 	ReceivedUnicastPackets 	0
scalar LocScenario.node[9].nic.mac1609_4 	ReceivedBroadcasts 	7595
scalar LocScenario.node[9].nic.mac1609_4 	SentPackets 	2040
scalar LocScenario.node[9].nic.mac1609_4 	SNIRLostPackets 	0
scalar LocScenario.node[9].nic.mac1609_4 	RXTXLostPackets 	0
scalar LocScenario.node[9].nic.mac1609_4 	TotalLostPackets 	0
scalar LocScenario.node[9].nic.mac1609_4 	DroppedPacketsInMac 	0
scalar LocScenario.node[9].nic.mac1609_4 	TooLittleTime 	0
scalar LocScenario.node[9].nic.mac1609_4 	TimesIntoBackoff 	2040
scalar LocScenario.node[9].nic.mac1609_4 	SlotsBackoff 	3033
scalar LocScenario.node[9].nic.mac1609_4 	NumInternalContention 	0
scalar LocScenario.node[9].nic.mac1609_4 	totalBusyTime 	1.00408
scalar LocScenario.node[9].veinsmobility 	startTime 	60.1
scalar LocScenario.node[9].veinsmobility 	totalTime 	203.9
scalar LocScenario.node[9].veinsmobility 	stopTime 	264.1
scalar LocScenario.node[9].veinsmobility 	minSpeed 	10.450011114101
scalar LocScenario.node[9].veinsmobility 	maxSpeed 	10.499910547258
scalar LocScenario.node[9].veinsmobility 	totalDistance 	2133.9197982341
scalar LocScenario.node[9].veinsmobility 	totalCO2Emission 	351.48391042355
scalar LocScenario.node[6].appl 	generatedWSMs 	0
scalar LocScenario.node[6].appl 	receivedWSMs 	0
scalar LocScenario.node[6].appl 	generatedBSMs 	2281
scalar LocScenario.node[6].appl 	receivedBSMs 	8000
scalar LocScenario.node[6].appl 	generatedWSAs 	0
scalar LocScenario.node[6].appl 	receivedWSAs 	0
scalar LocScenario.node[6].appl 	rmseSUMGPS 	22679.448923559
scalar LocScenario.node[6].appl 	rmseSUMCP 	246900.54435808
scalar LocScenario.node[6].appl 	delaySum 	0.89542512662943
scalar LocScenario.node[6].nic.phy80211p 	busyTime 	0.0036475230162208
scalar LocScenario.node[6].nic.mac1609_4 	ReceivedUnicastPackets 	0
scalar LocScenario.node[6].nic.mac1609_4 	ReceivedBroadcasts 	8000
scalar LocScenario.node[6].nic.mac1609_4 	SentPackets 	2281
scalar LocScenario.node[6].nic.mac1609_4 	SNIRLostPackets 	0
scalar LocScenario.node[6].nic.mac1609_4 	RXTXLostPackets 	0
scalar LocScenario.node[6].nic.mac1609_4 	TotalLostPackets 	0
scalar LocScenario.node[6].nic.mac1609_4 	DroppedPacketsInMac 	0
scalar LocScenario.node[6].nic.mac1609_4 	TooLittleTime 	0
scalar LocScenario.node[6].nic.mac1609_4 	TimesIntoBackoff 	2281
scalar LocScenario.node[6].nic.mac1609_4 	SlotsBackoff 	3360
scalar LocScenario.node[6].nic.mac1609_4 	NumInternalContention 	0
scalar LocScenario.node[6].nic.mac1609_4 	totalBusyTime 	1.071505
scalar LocScenario.node[6].veinsmobility 	startTime 	45.1
scalar LocScenario.node[6].veinsmobility 	totalTime 	228
scalar LocScenario.node[6].veinsmobility 	stopTime 	273.2
scalar LocScenario.node[6].veinsmobility 	minSpeed 	10.450026092492
scalar LocScenario.node[6].veinsmobility 	maxSpeed 	10.499985727889
scalar LocScenario.node[6].veinsmobility 	totalDistance 	2392.1538189963
scalar LocScenario.node[6].veinsmobility 	totalCO2Emission 	393.63041545294
scalar LocScenario.node[11].appl 	generatedWSMs 	0
scalar LocScenario.node[11].appl 	receivedWSMs 	0
scalar LocScenario.node[11].appl 	generatedBSMs 	2040
scalar LocScenario.node[11].appl 	receivedBSMs 	7816
scalar LocScenario.node[11].appl 	generatedWSAs 	0
scalar LocScenario.node[11].appl 	receivedWSAs 	0
scalar LocScenario.node[11].appl 	rmseSUMGPS 	713863.8517574
scalar LocScenario.node[11].appl 	rmseSUMCP 	709058.01656805
scalar LocScenario.node[11].appl 	delaySum 	0.87469213955724
scalar LocScenario.node[11].nic.phy80211p 	busyTime 	0.0039846274509802
scalar LocScenario.node[11].nic.mac1609_4 	ReceivedUnicastPackets 	0
scalar LocScenario.node[11].nic.mac1609_4 	ReceivedBroadcasts 	7816
scalar LocScenario.node[11].nic.mac1609_4 	SentPackets 	2040
scalar LocScenario.node[11].nic.mac1609_4 	SNIRLostPackets 	0
scalar LocScenario.node[11].nic.mac1609_4 	RXTXLostPackets 	0
scalar LocScenario.node[11].nic.mac1609_4 	TotalLostPackets 	0
scalar LocScenario.node[11].nic.mac1609_4 	DroppedPacketsInMac 	0
scalar LocScenario.node[11].nic.mac1609_4 	TooLittleTime 	0
scalar LocScenario.node[11].nic.mac1609_4 	TimesIntoBackoff 	2040
scalar LocScenario.node[11].nic.mac1609_4 	SlotsBackoff 	3069
scalar LocScenario.node[11].nic.mac1609_4 	NumInternalContention 	0
scalar LocScenario.node[11].nic.mac1609_4 	totalBusyTime 	1.027064
scalar LocScenario.node[11].veinsmobility 	startTime 	75.1
scalar LocScenario.node[11].veinsmobility 	totalTime 	203.9
scalar LocScenario.node[11].veinsmobility 	stopTime 	279.1
scalar LocScenario.node[11].veinsmobility 	minSpeed 	10.450000991975
scalar LocScenario.node[11].veinsmobility 	maxSpeed 	10.499994519248
scalar LocScenario.node[11].veinsmobility 	totalDistance 	2138.7695874637
scalar LocScenario.node[11].veinsmobility 	totalCO2Emission 	351.64869872853
scalar LocScenario.node[8].appl 	generatedWSMs 	0
scalar LocScenario.node[8].appl 	receivedWSMs 	0
scalar LocScenario.node[8].appl 	generatedBSMs 	2281
scalar LocScenario.node[8].appl 	receivedBSMs 	8219
scalar LocScenario.node[8].appl 	generatedWSAs 	0
scalar LocScenario.node[8].appl 	receivedWSAs 	0
scalar LocScenario.node[8].appl 	rmseSUMGPS 	91325.165825228
scalar LocScenario.node[8].appl 	rmseSUMCP 	279749.15614641
scalar LocScenario.node[8].appl 	delaySum 	0.91878579383078
scalar LocScenario.node[8].nic.phy80211p 	busyTime 	0.0037473739587898
scalar LocScenario.node[8].nic.mac1609_4 	ReceivedUnicastPackets 	0
scalar LocScenario.node[8].nic.mac1609_4 	ReceivedBroadcasts 	8219
scalar LocScenario.node[8].nic.mac1609_4 	SentPackets 	2281
scalar LocScenario.node[8].nic.mac1609_4 	SNIRLostPackets 	0
scalar LocScenario.node[8].nic.mac1609_4 	RXTXLostPackets 	0
scalar LocScenario.node[8].nic.mac1609_4 	TotalLostPackets 	0
scalar LocScenario.node[8].nic.mac1609_4 	DroppedPacketsInMac 	0
scalar LocScenario.node[8].nic.mac1609_4 	TooLittleTime 	0
scalar LocScenario.node[8].nic.mac1609_4 	TimesIntoBackoff 	2281
scalar LocScenario.node[8].nic.mac1609_4 	SlotsBackoff 	3402
scalar LocScenario.node[8].nic.mac1609_4 	NumInternalContention 	0
scalar LocScenario.node[8].nic.mac1609_4 	totalBusyTime 	1.094281
scalar LocScenario.node[8].veinsmobility 	startTime 	60.1
scalar LocScenario.node[8].veinsmobility 	totalTime 	228
scalar LocScenario.node[8].veinsmobility 	stopTime 	288.2
scalar LocScenario.node[8].veinsmobility 	minSpeed 	10.450003933464
scalar LocScenario.node[8].veinsmobility 	maxSpeed 	10.499982475035
scalar LocScenario.node[8].veinsmobility 	totalDistance 	2392.3783658249
scalar LocScenario.node[8].veinsmobility 	totalCO2Emission 	393.59882879429
scalar LocScenario.node[13].appl 	generatedWSMs 	0
scalar LocScenario.node[13].appl 	receivedWSMs 	0
scalar LocScenario.node[13].appl 	generatedBSMs 	2040
scalar LocScenario.node[13].appl 	receivedBSMs 	8040
scalar LocScenario.node[13].appl 	generatedWSAs 	0
scalar LocScenario.node[13].appl 	receivedWSAs 	0
scalar LocScenario.node[13].appl 	rmseSUMGPS 	720987.82275277
scalar LocScenario.node[13].appl 	rmseSUMCP 	402479.5888671
scalar LocScenario.node[13].appl 	delaySum 	0.89963947152511
scalar LocScenario.node[13].nic.phy80211p 	busyTime 	0.0040988235294115
scalar LocScenario.node[13].nic.mac1609_4 	ReceivedUnicastPackets 	0
scalar LocScenario.node[13].nic.mac1609_4 	ReceivedBroadcasts 	8040
scalar LocScenario.node[13].nic.mac1609_4 	SentPackets 	2040
scalar LocScenario.node[13].nic.mac1609_4 	SNIRLostPackets 	0
scalar LocScenario.node[13].nic.mac1609_4 	RXTXLostPackets 	0
scalar LocScenario.node[13].nic.mac1609_4 	TotalLostPackets 	0
scalar LocScenario.node[13].nic.mac1609_4 	DroppedPacketsInMac 	0
scalar LocScenario.node[13].nic.mac1609_4 	TooLittleTime 	0
scalar LocScenario.node[13].nic.mac1609_4 	TimesIntoBackoff 	2040
scalar LocScenario.node[13].nic.mac1609_4 	SlotsBackoff 	3065
scalar LocScenario.node[13].nic.mac1609_4 	NumInternalContention 	0
scalar LocScenario.node[13].nic.mac1609_4 	totalBusyTime 	1.05036
scalar LocScenario.node[13].veinsmobility 	startTime 	90.1
scalar LocScenario.node[13].veinsmobility 	totalTime 	203.9
scalar LocScenario.node[13].veinsmobility 	stopTime 	294.1
scalar LocScenario.node[13].veinsmobility 	minSpeed 	10.450068059145
scalar LocScenario.node[13].veinsmobility 	maxSpeed 	10.499991588446
scalar LocScenario.node[13].veinsmobility 	totalDistance 	2138.8399513704
scalar LocScenario.node[13].veinsmobility 	totalCO2Emission 	351.53603328491
scalar LocScenario.node[10].appl 	generatedWSMs 	0
scalar LocScenario.node[10].appl 	receivedWSMs 	0
scalar LocScenario.node[10].appl 	generatedBSMs 	2281
scalar LocScenario.node[10].appl 	receivedBSMs 	8429
scalar LocScenario.node[10].appl 	generatedWSAs 	0
scalar LocScenario.node[10].appl 	receivedWSAs 	0
scalar LocScenario.node[10].appl 	rmseSUMGPS 	960808.23757994
scalar LocScenario.node[10].appl 	rmseSUMCP 	306591.97757562
scalar LocScenario.node[10].appl 	delaySum 	4.7015369557749e+17
scalar LocScenario.node[10].nic.phy80211p 	busyTime 	0.0038431214379656
scalar LocScenario.node[10].nic.mac1609_4 	ReceivedUnicastPackets 	0
scalar LocScenario.node[10].nic.mac1609_4 	ReceivedBroadcasts 	8429
scalar LocScenario.node[10].nic.mac1609_4 	SentPackets 	2281
scalar LocScenario.node[10].nic.mac1609_4 	SNIRLostPackets 	0
scalar LocScenario.node[10].nic.mac1609_4 	RXTXLostPackets 	0
scalar LocScenario.node[10].nic.mac1609_4 	TotalLostPackets 	0
scalar LocScenario.node[10].nic.mac1609_4 	DroppedPacketsInMac 	0
scalar LocScenario.node[10].nic.mac1609_4 	TooLittleTime 	0
scalar LocScenario.node[10].nic.mac1609_4 	TimesIntoBackoff 	2281
scalar LocScenario.node[10].nic.mac1609_4 	SlotsBackoff 	3497
scalar LocScenario.node[10].nic.mac1609_4 	NumInternalContention 	0
scalar LocScenario.node[10].nic.mac1609_4 	totalBusyTime 	1.116121
scalar LocScenario.node[10].veinsmobility 	startTime 	75.1
scalar LocScenario.node[10].veinsmobility 	totalTime 	228
scalar LocScenario.node[10].veinsmobility 	stopTime 	303.2
scalar LocScenario.node[10].veinsmobility 	minSpeed 	10.450024090137
scalar LocScenario.node[10].veinsmobility 	maxSpeed 	10.499924126279
scalar LocScenario.node[10].veinsmobility 	totalDistance 	2388.7742100232
scalar LocScenario.node[10].veinsmobility 	totalCO2Emission 	393.60660868367
scalar LocScenario.node[15].appl 	generatedWSMs 	0
scalar LocScenario.node[15].appl 	receivedWSMs 	0
scalar LocScenario.node[15].appl 	generatedBSMs 	2040
scalar LocScenario.node[15].appl 	receivedBSMs 	8261
scalar LocScenario.node[15].appl 	generatedWSAs 	0
scalar LocScenario.node[15].appl 	receivedWSAs 	0
scalar LocScenario.node[15].appl 	rmseSUMGPS 	1185238.275598
scalar LocScenario.node[15].appl 	rmseSUMCP 	1141557.0207032
scalar LocScenario.node[15].appl 	delaySum 	0.92382196940241
scalar LocScenario.node[15].nic.phy80211p 	busyTime 	0.0042114901960782
scalar LocScenario.node[15].nic.mac1609_4 	ReceivedUnicastPackets 	0
scalar LocScenario.node[15].nic.mac1609_4 	ReceivedBroadcasts 	8261
scalar LocScenario.node[15].nic.mac1609_4 	SentPackets 	2040
scalar LocScenario.node[15].nic.mac1609_4 	SNIRLostPackets 	0
scalar LocScenario.node[15].nic.mac1609_4 	RXTXLostPackets 	0
scalar LocScenario.node[15].nic.mac1609_4 	TotalLostPackets 	0
scalar LocScenario.node[15].nic.mac1609_4 	DroppedPacketsInMac 	0
scalar LocScenario.node[15].nic.mac1609_4 	TooLittleTime 	0
scalar LocScenario.node[15].nic.mac1609_4 	TimesIntoBackoff 	2040
scalar LocScenario.node[15].nic.mac1609_4 	SlotsBackoff 	3182
scalar LocScenario.node[15].nic.mac1609_4 	NumInternalContention 	0
scalar LocScenario.node[15].nic.mac1609_4 	totalBusyTime 	1.073344
scalar LocScenario.node[15].veinsmobility 	startTime 	105.1
scalar LocScenario.node[15].veinsmobility 	totalTime 	203.9
scalar LocScenario.node[15].veinsmobility 	stopTime 	309.1
scalar LocScenario.node[15].veinsmobility 	minSpeed 	10.450001428509
scalar LocScenario.node[15].veinsmobility 	maxSpeed 	10.499992882437
scalar LocScenario.node[15].veinsmobility 	totalDistance 	2138.684870159
scalar LocScenario.node[15].veinsmobility 	totalCO2Emission 	352.1944308041
scalar LocScenario.node[12].appl 	generatedWSMs 	0
scalar LocScenario.node[12].appl 	receivedWSMs 	0
scalar LocScenario.node[12].appl 	generatedBSMs 	2281
scalar LocScenario.node[12].appl 	receivedBSMs 	8641
scalar LocScenario.node[12].appl 	generatedWSAs 	0
scalar LocScenario.node[12].appl 	receivedWSAs 	0
scalar LocScenario.node[12].appl 	rmseSUMGPS 	33766.740736904
scalar LocScenario.node[12].appl 	rmseSUMCP 	338706.42325359
scalar LocScenario.node[12].appl 	delaySum 	0.96719706818483
scalar LocScenario.node[12].nic.phy80211p 	busyTime 	0.0039397807978954
scalar LocScenario.node[12].nic.mac1609_4 	ReceivedUnicastPackets 	0
scalar LocScenario.node[12].nic.mac1609_4 	ReceivedBroadcasts 	8641
scalar LocScenario.node[12].nic.mac1609_4 	SentPackets 	2281
scalar LocScenario.node[12].nic.mac1609_4 	SNIRLostPackets 	0
scalar LocScenario.node[12].nic.mac1609_4 	RXTXLostPackets 	0
scalar LocScenario.node[12].nic.mac1609_4 	TotalLostPackets 	0
scalar LocScenario.node[12].nic.mac1609_4 	DroppedPacketsInMac 	0
scalar LocScenario.node[12].nic.mac1609_4 	TooLittleTime 	0
scalar LocScenario.node[12].nic.mac1609_4 	TimesIntoBackoff 	2281
scalar LocScenario.node[12].nic.mac1609_4 	SlotsBackoff 	3478
scalar LocScenario.node[12].nic.mac1609_4 	NumInternalContention 	0
scalar LocScenario.node[12].nic.mac1609_4 	totalBusyTime 	1.138169
scalar LocScenario.node[12].veinsmobility 	startTime 	90.1
scalar LocScenario.node[12].veinsmobility 	totalTime 	228
scalar LocScenario.node[12].veinsmobility 	stopTime 	318.2
scalar LocScenario.node[12].veinsmobility 	minSpeed 	10.450009021605
scalar LocScenario.node[12].veinsmobility 	maxSpeed 	10.499999915785
scalar LocScenario.node[12].veinsmobility 	totalDistance 	2394.6824400436
scalar LocScenario.node[12].veinsmobility 	totalCO2Emission 	393.01076997798
scalar LocScenario.node[17].appl 	generatedWSMs 	0
scalar LocScenario.node[17].appl 	receivedWSMs 	0
scalar LocScenario.node[17].appl 	generatedBSMs 	2040
scalar LocScenario.node[17].appl 	receivedBSMs 	8482
scalar LocScenario.node[17].appl 	generatedWSAs 	0
scalar LocScenario.node[17].appl 	receivedWSAs 	0
scalar LocScenario.node[17].appl 	rmseSUMGPS 	659037.81844462
scalar LocScenario.node[17].appl 	rmseSUMCP 	1149922.3492349
scalar LocScenario.node[17].appl 	delaySum 	0.94882267796572
scalar LocScenario.node[17].nic.phy80211p 	busyTime 	0.0043241568627449
scalar LocScenario.node[17].nic.mac1609_4 	ReceivedUnicastPackets 	0
scalar LocScenario.node[17].nic.mac1609_4 	ReceivedBroadcasts 	8482
scalar LocScenario.node[17].nic.mac1609_4 	SentPackets 	2040
scalar LocScenario.node[17].nic.mac1609_4 	SNIRLostPackets 	0
scalar LocScenario.node[17].nic.mac1609_4 	RXTXLostPackets 	0
scalar LocScenario.node[17].nic.mac1609_4 	TotalLostPackets 	0
scalar LocScenario.node[17].nic.mac1609_4 	DroppedPacketsInMac 	0
scalar LocScenario.node[17].nic.mac1609_4 	TooLittleTime 	0
scalar LocScenario.node[17].nic.mac1609_4 	TimesIntoBackoff 	2040
scalar LocScenario.node[17].nic.mac1609_4 	SlotsBackoff 	3123
scalar LocScenario.node[17].nic.mac1609_4 	NumInternalContention 	0
scalar LocScenario.node[17].nic.mac1609_4 	totalBusyTime 	1.096328
scalar LocScenario.node[17].veinsmobility 	startTime 	120.1
scalar LocScenario.node[17].veinsmobility 	totalTime 	203.9
scalar LocScenario.node[17].veinsmobility 	stopTime 	324.1
scalar LocScenario.node[17].veinsmobility 	minSpeed 	10.450017435709
scalar LocScenario.node[17].veinsmobility 	maxSpeed 	10.499990960723
scalar LocScenario.node[17].veinsmobility 	totalDistance 	2133.8217241752
scalar LocScenario.node[17].veinsmobility 	totalCO2Emission 	351.61301725895
scalar LocScenario.node[14].appl 	generatedWSMs 	0
scalar LocScenario.node[14].appl 	receivedWSMs 	0
scalar LocScenario.node[14].appl 	generatedBSMs 	2281
scalar LocScenario.node[14].appl 	receivedBSMs 	8855
scalar LocScenario.node[14].appl 	generatedWSAs 	0
scalar LocScenario.node[14].appl 	receivedWSAs 	0
scalar LocScenario.node[14].appl 	rmseSUMGPS 	1087231.6741851
scalar LocScenario.node[14].appl 	rmseSUMCP 	395347.73766636
scalar LocScenario.node[14].appl 	delaySum 	3.4084129392538e+184
scalar LocScenario.node[14].nic.phy80211p 	busyTime 	0.0040373520385794
scalar LocScenario.node[14].nic.mac1609_4 	ReceivedUnicastPackets 	0
scalar LocScenario.node[14].nic.mac1609_4 	ReceivedBroadcasts 	8855
scalar LocScenario.node[14].nic.mac1609_4 	SentPackets 	2281
scalar LocScenario.node[14].nic.mac1609_4 	SNIRLostPackets 	0
scalar LocScenario.node[14].nic.mac1609_4 	RXTXLostPackets 	0
scalar LocScenario.node[14].nic.mac1609_4 	TotalLostPackets 	0
scalar LocScenario.node[14].nic.mac1609_4 	DroppedPacketsInMac 	0
scalar LocScenario.node[14].nic.mac1609_4 	TooLittleTime 	0
scalar LocScenario.node[14].nic.mac1609_4 	TimesIntoBackoff 	2281
scalar LocScenario.node[14].nic.mac1609_4 	SlotsBackoff 	3468
scalar LocScenario.node[14].nic.mac1609_4 	NumInternalContention 	0
scalar LocScenario.node[14].nic.mac1609_4 	totalBusyTime 	1.160425
scalar LocScenario.node[14].veinsmobility 	startTime 	105.1
scalar LocScenario.node[14].veinsmobility 	totalTime 	228
scalar LocScenario.node[14].veinsmobility 	stopTime 	333.2
scalar LocScenario.node[14].veinsmobility 	minSpeed 	10.450002059981
scalar LocScenario.node[14].veinsmobility 	maxSpeed 	10.499985153123
scalar LocScenario.node[14].veinsmobility 	totalDistance 	2388.7028164525
scalar LocScenario.node[14].veinsmobility 	totalCO2Emission 	393.81794041216
scalar LocScenario.node[19].appl 	generatedWSMs 	0
scalar LocScenario.node[19].appl 	receivedWSMs 	0
scalar LocScenario.node[19].appl 	generatedBSMs 	2040
scalar LocScenario.node[19].appl 	receivedBSMs 	8692
scalar LocScenario.node[19].appl 	generatedWSAs 	0
scalar LocScenario.node[19].appl 	receivedWSAs 	0
scalar LocScenario.node[19].appl 	rmseSUMGPS 	1653299.4452695
scalar LocScenario.node[19].appl 	rmseSUMCP 	592895.74759951
scalar LocScenario.node[19].appl 	delaySum 	0.97351097704623
scalar LocScenario.node[19].nic.phy80211p 	busyTime 	0.0044312156862743
scalar LocScenario.node[19].nic.mac1609_4 	ReceivedUnicastPackets 	0
scalar LocScenario.node[19].nic.mac1609_4 	ReceivedBroadcasts 	8692
scalar LocScenario.node[19].nic.mac1609_4 	SentPackets 	2040
scalar LocScenario.node[19].nic.mac1609_4 	SNIRLostPackets 	0
scalar LocScenario.node[19].nic.mac1609_4 	RXTXLostPackets 	0
scalar LocScenario.node[19].nic.mac1609_4 	TotalLostPackets 	0
scalar LocScenario.node[19].nic.mac1609_4 	DroppedPacketsInMac 	0
scalar LocScenario.node[19].nic.mac1609_4 	TooLittleTime 	0
scalar LocScenario.node[19].nic.mac1609_4 	TimesIntoBackoff 	2040
scalar LocScenario.node[19].nic.mac1609_4 	SlotsBackoff 	2981
scalar LocScenario.node[19].nic.mac1609_4 	NumInternalContention 	0
scalar LocScenario.node[19].nic.mac1609_4 	totalBusyTime 	1.118168
scalar LocScenario.node[19].veinsmobility 	startTime 	135.1
scalar LocScenario.node[19].veinsmobility 	totalTime 	203.9
scalar LocScenario.node[19].veinsmobility 	stopTime 	339.1
scalar LocScenario.node[19].veinsmobility 	minSpeed 	10.450078499748
scalar LocScenario.node[19].veinsmobility 	maxSpeed 	10.499956273718
scalar LocScenario.node[19].veinsmobility 	totalDistance 	2138.6775753794
scalar LocScenario.node[19].veinsmobility 	totalCO2Emission 	352.15205794713
scalar LocScenario.node[16].appl 	generatedWSMs 	0
scalar LocScenario.node[16].appl 	receivedWSMs 	0
scalar LocScenario.node[16].appl 	generatedBSMs 	2281
scalar LocScenario.node[16].appl 	receivedBSMs 	9076
scalar LocScenario.node[16].appl 	generatedWSAs 	0
scalar LocScenario.node[16].appl 	receivedWSAs 	0
scalar LocScenario.node[16].appl 	rmseSUMGPS 	939620.11980251
scalar LocScenario.node[16].appl 	rmseSUMCP 	421828.07232639
scalar LocScenario.node[16].appl 	delaySum 	1.0169850172119
scalar LocScenario.node[16].nic.phy80211p 	busyTime 	0.0041381148619025
scalar LocScenario.node[16].nic.mac1609_4 	ReceivedUnicastPackets 	0
scalar LocScenario.node[16].nic.mac1609_4 	ReceivedBroadcasts 	9076
scalar LocScenario.node[16].nic.mac1609_4 	SentPackets 	2281
scalar LocScenario.node[16].nic.mac1609_4 	SNIRLostPackets 	0
scalar LocScenario.node[16].nic.mac1609_4 	RXTXLostPackets 	0
scalar LocScenario.node[16].nic.mac1609_4 	TotalLostPackets 	0
scalar LocScenario.node[16].nic.mac1609_4 	DroppedPacketsInMac 	0
scalar LocScenario.node[16].nic.mac1609_4 	TooLittleTime 	0
scalar LocScenario.node[16].nic.mac1609_4 	TimesIntoBackoff 	2281
scalar LocScenario.node[16].nic.mac1609_4 	SlotsBackoff 	3423
scalar LocScenario.node[16].nic.mac1609_4 	NumInternalContention 	0
scalar LocScenario.node[16].nic.mac1609_4 	totalBusyTime 	1.183409
scalar LocScenario.node[16].veinsmobility 	startTime 	120.1
scalar LocScenario.node[16].veinsmobility 	totalTime 	228
scalar LocScenario.node[16].veinsmobility 	stopTime 	348.2
scalar LocScenario.node[16].veinsmobility 	minSpeed 	10.450003335776
scalar LocScenario.node[16].veinsmobility 	maxSpeed 	10.499995968281
scalar LocScenario.node[16].veinsmobility 	totalDistance 	2388.8100224831
scalar LocScenario.node[16].veinsmobility 	totalCO2Emission 	393.85995298313
scalar LocScenario.node[21].appl 	generatedWSMs 	0
scalar LocScenario.node[21].appl 	receivedWSMs 	0
scalar LocScenario.node[21].appl 	generatedBSMs 	2040
scalar LocScenario.node[21].appl 	receivedBSMs 	8886
scalar LocScenario.node[21].appl 	generatedWSAs 	0
scalar LocScenario.node[21].appl 	receivedWSAs 	0
scalar LocScenario.node[21].appl 	rmseSUMGPS 	867396.67508335
scalar LocScenario.node[21].appl 	rmseSUMCP 	1965275.8903266
scalar LocScenario.node[21].appl 	delaySum 	0.99951000878326
scalar LocScenario.node[21].nic.phy80211p 	busyTime 	0.0045301176470586
scalar LocScenario.node[21].nic.mac1609_4 	ReceivedUnicastPackets 	0
scalar LocScenario.node[21].nic.mac1609_4 	ReceivedBroadcasts 	8886
scalar LocScenario.node[21].nic.mac1609_4 	SentPackets 	2040
scalar LocScenario.node[21].nic.mac1609_4 	SNIRLostPackets 	0
scalar LocScenario.node[21].nic.mac1609_4 	RXTXLostPackets 	0
scalar LocScenario.node[21].nic.mac1609_4 	TotalLostPackets 	0
scalar LocScenario.node[21].nic.mac1609_4 	DroppedPacketsInMac 	0
scalar LocScenario.node[21].nic.mac1609_4 	TooLittleTime 	0
scalar LocScenario.node[21].nic.mac1609_4 	TimesIntoBackoff 	2040
scalar LocScenario.node[21].nic.mac1609_4 	SlotsBackoff 	3104
scalar LocScenario.node[21].nic.mac1609_4 	NumInternalContention 	0
scalar LocScenario.node[21].nic.mac1609_4 	totalBusyTime 	1.138344
scalar LocScenario.node[21].veinsmobility 	startTime 	150.1
scalar LocScenario.node[21].veinsmobility 	totalTime 	203.9
scalar LocScenario.node[21].veinsmobility 	stopTime 	354.1
scalar LocScenario.node[21].veinsmobility 	minSpeed 	10.450014397444
scalar LocScenario.node[21].veinsmobility 	maxSpeed 	10.499993660056
scalar LocScenario.node[21].veinsmobility 	totalDistance 	2133.7757738687
scalar LocScenario.node[21].veinsmobility 	totalCO2Emission 	351.39480341003
scalar LocScenario.node[18].appl 	generatedWSMs 	0
scalar LocScenario.node[18].appl 	receivedWSMs 	0
scalar LocScenario.node[18].appl 	generatedBSMs 	2281
scalar LocScenario.node[18].appl 	receivedBSMs 	9300
scalar LocScenario.node[18].appl 	generatedWSAs 	0
scalar LocScenario.node[18].appl 	receivedWSAs 	0
scalar LocScenario.node[18].appl 	rmseSUMGPS 	41016.345637938
scalar LocScenario.node[18].appl 	rmseSUMCP 	417151.33075575
scalar LocScenario.node[18].appl 	delaySum 	-1.2501343164761e+149
scalar LocScenario.node[18].nic.phy80211p 	busyTime 	0.0042402455063566
scalar LocScenario.node[18].nic.mac1609_4 	ReceivedUnicastPackets 	0
scalar LocScenario.node[18].nic.mac1609_4 	ReceivedBroadcasts 	9300
scalar LocScenario.node[18].nic.mac1609_4 	SentPackets 	2281
scalar LocScenario.node[18].nic.mac1609_4 	SNIRLostPackets 	0
scalar LocScenario.node[18].nic.mac1609_4 	RXTXLostPackets 	0
scalar LocScenario.node[18].nic.mac1609_4 	TotalLostPackets 	0
scalar LocScenario.node[18].nic.mac1609_4 	DroppedPacketsInMac 	0
scalar LocScenario.node[18].nic.mac1609_4 	TooLittleTime 	0
scalar LocScenario.node[18].nic.mac1609_4 	TimesIntoBackoff 	2281
scalar LocScenario.node[18].nic.mac1609_4 	SlotsBackoff 	3431
scalar LocScenario.node[18].nic.mac1609_4 	NumInternalContention 	0
scalar LocScenario.node[18].nic.mac1609_4 	totalBusyTime 	1.206705
scalar LocScenario.node[18].veinsmobility 	startTime 	135.1
scalar LocScenario.node[18].veinsmobility 	totalTime 	228
scalar LocScenario.node[18].veinsmobility 	stopTime 	363.2
scalar LocScenario.node[18].veinsmobility 	minSpeed 	10.450027267158
scalar LocScenario.node[18].veinsmobility 	maxSpeed 	10.499991786608
scalar LocScenario.node[18].veinsmobility 	totalDistance 	2394.7175278942
scalar LocScenario.node[18].veinsmobility 	totalCO2Emission 	393.09749049308
scalar LocScenario.node[23].appl 	generatedWSMs 	0
scalar LocScenario.node[23].appl 	receivedWSMs 	0
scalar LocScenario.node[23].appl 	generatedBSMs 	2040
scalar LocScenario.node[23].appl 	receivedBSMs 	9020
scalar LocScenario.node[23].appl 	generatedWSAs 	0
scalar LocScenario.node[23].appl 	receivedWSAs 	0
scalar LocScenario.node[23].appl 	rmseSUMGPS 	960100.97088308
scalar LocScenario.node[23].appl 	rmseSUMCP 	690614.17072726
scalar LocScenario.node[23].appl 	delaySum 	1.0191728702493
scalar LocScenario.node[23].nic.phy80211p 	busyTime 	0.004637176470588
scalar LocScenario.node[23].nic.mac1609_4 	ReceivedUnicastPackets 	0
scalar LocScenario.node[23].nic.mac1609_4 	ReceivedBroadcasts 	9020
scalar LocScenario.node[23].nic.mac1609_4 	SentPackets 	2040
scalar LocScenario.node[23].nic.mac1609_4 	SNIRLostPackets 	76
scalar LocScenario.node[23].nic.mac1609_4 	RXTXLostPackets 	0
scalar LocScenario.node[23].nic.mac1609_4 	TotalLostPackets 	76
scalar LocScenario.node[23].nic.mac1609_4 	DroppedPacketsInMac 	0
scalar LocScenario.node[23].nic.mac1609_4 	TooLittleTime 	0
scalar LocScenario.node[23].nic.mac1609_4 	TimesIntoBackoff 	2040
scalar LocScenario.node[23].nic.mac1609_4 	SlotsBackoff 	3085
scalar LocScenario.node[23].nic.mac1609_4 	NumInternalContention 	0
scalar LocScenario.node[23].nic.mac1609_4 	totalBusyTime 	1.156648
scalar LocScenario.node[23].veinsmobility 	startTime 	165.1
scalar LocScenario.node[23].veinsmobility 	totalTime 	203.9
scalar LocScenario.node[23].veinsmobility 	stopTime 	369.1
scalar LocScenario.node[23].veinsmobility 	minSpeed 	10.450048440113
scalar LocScenario.node[23].veinsmobility 	maxSpeed 	10.499928744324
scalar LocScenario.node[23].veinsmobility 	totalDistance 	2133.7804600423
scalar LocScenario.node[23].veinsmobility 	totalCO2Emission 	352.45412449772
scalar LocScenario.node[20].appl 	generatedWSMs 	0
scalar LocScenario.node[20].appl 	receivedWSMs 	0
scalar LocScenario.node[20].appl 	generatedBSMs 	2281
scalar LocScenario.node[20].appl 	receivedBSMs 	9519
scalar LocScenario.node[20].appl 	generatedWSAs 	0
scalar LocScenario.node[20].appl 	receivedWSAs 	0
scalar LocScenario.node[20].appl 	rmseSUMGPS 	46902.616479967
scalar LocScenario.node[20].appl 	rmseSUMCP 	428090.66537571
scalar LocScenario.node[20].appl 	delaySum 	-1.0644553563326e+200
scalar LocScenario.node[20].nic.phy80211p 	busyTime 	0.0043400964489257
scalar LocScenario.node[20].nic.mac1609_4 	ReceivedUnicastPackets 	0
scalar LocScenario.node[20].nic.mac1609_4 	ReceivedBroadcasts 	9519
scalar LocScenario.node[20].nic.mac1609_4 	SentPackets 	2281
scalar LocScenario.node[20].nic.mac1609_4 	SNIRLostPackets 	0
scalar LocScenario.node[20].nic.mac1609_4 	RXTXLostPackets 	0
scalar LocScenario.node[20].nic.mac1609_4 	TotalLostPackets 	0
scalar LocScenario.node[20].nic.mac1609_4 	DroppedPacketsInMac 	0
scalar LocScenario.node[20].nic.mac1609_4 	TooLittleTime 	0
scalar LocScenario.node[20].nic.mac1609_4 	TimesIntoBackoff 	2281
scalar LocScenario.node[20].nic.mac1609_4 	SlotsBackoff 	3455
scalar LocScenario.node[20].nic.mac1609_4 	NumInternalContention 	0
scalar LocScenario.node[20].nic.mac1609_4 	totalBusyTime 	1.229481
scalar LocScenario.node[20].veinsmobility 	startTime 	150.1
scalar LocScenario.node[20].veinsmobility 	totalTime 	228
scalar LocScenario.node[20].veinsmobility 	stopTime 	378.2
scalar LocScenario.node[20].veinsmobility 	minSpeed 	10.450067975791
scalar LocScenario.node[20].veinsmobility 	maxSpeed 	10.499962949252
scalar LocScenario.node[20].veinsmobility 	totalDistance 	2392.3207413439
scalar LocScenario.node[20].veinsmobility 	totalCO2Emission 	393.68350758368
scalar LocScenario.node[25].appl 	generatedWSMs 	0
scalar LocScenario.node[25].appl 	receivedWSMs 	0
scalar LocScenario.node[25].appl 	generatedBSMs 	2040
scalar LocScenario.node[25].appl 	receivedBSMs 	9285
scalar LocScenario.node[25].appl 	generatedWSAs 	0
scalar LocScenario.node[25].appl 	receivedWSAs 	0
scalar LocScenario.node[25].appl 	rmseSUMGPS 	614784.00645275
scalar LocScenario.node[25].appl 	rmseSUMCP 	565245.6831256
scalar LocScenario.node[25].appl 	delaySum 	1.0535320759476
scalar LocScenario.node[25].nic.phy80211p 	busyTime 	0.0047335294117644
scalar LocScenario.node[25].nic.mac1609_4 	ReceivedUnicastPackets 	0
scalar LocScenario.node[25].nic.mac1609_4 	ReceivedBroadcasts 	9285
scalar LocScenario.node[25].nic.mac1609_4 	SentPackets 	2040
scalar LocScenario.node[25].nic.mac1609_4 	SNIRLostPackets 	0
scalar LocScenario.node[25].nic.mac1609_4 	RXTXLostPackets 	0
scalar LocScenario.node[25].nic.mac1609_4 	TotalLostPackets 	0
scalar LocScenario.node[25].nic.mac1609_4 	DroppedPacketsInMac 	0
scalar LocScenario.node[25].nic.mac1609_4 	TooLittleTime 	0
scalar LocScenario.node[25].nic.mac1609_4 	TimesIntoBackoff 	2040
scalar LocScenario.node[25].nic.mac1609_4 	SlotsBackoff 	3099
scalar LocScenario.node[25].nic.mac1609_4 	NumInternalContention 	0
scalar LocScenario.node[25].nic.mac1609_4 	totalBusyTime 	1.17984
scalar LocScenario.node[25].veinsmobility 	startTime 	180.1
scalar LocScenario.node[25].veinsmobility 	totalTime 	203.9
scalar LocScenario.node[25].veinsmobility 	stopTime 	384.1
scalar LocScenario.node[25].veinsmobility 	minSpeed 	10.450035355287
scalar LocScenario.node[25].veinsmobility 	maxSpeed 	10.49999755281
scalar LocScenario.node[25].veinsmobility 	totalDistance 	2138.7711797893
scalar LocScenario.node[25].veinsmobility 	totalCO2Emission 	351.74856238864
scalar LocScenario.node[22].appl 	generatedWSMs 	0
scalar LocScenario.node[22].appl 	receivedWSMs 	0
scalar LocScenario.node[22].appl 	generatedBSMs 	2281
scalar LocScenario.node[22].appl 	receivedBSMs 	9732
scalar LocScenario.node[22].appl 	generatedWSAs 	0
scalar LocScenario.node[22].appl 	receivedWSAs 	0
scalar LocScenario.node[22].appl 	rmseSUMGPS 	1046367.8166729
scalar LocScenario.node[22].appl 	rmseSUMCP 	456286.82291133
scalar LocScenario.node[22].appl 	delaySum 	3.7104025629927e+74
scalar LocScenario.node[22].nic.phy80211p 	busyTime 	0.0044372117492326
scalar LocScenario.node[22].nic.mac1609_4 	ReceivedUnicastPackets 	0
scalar LocScenario.node[22].nic.mac1609_4 	ReceivedBroadcasts 	9732
scalar LocScenario.node[22].nic.mac1609_4 	SentPackets 	2281
scalar LocScenario.node[22].nic.mac1609_4 	SNIRLostPackets 	0
scalar LocScenario.node[22].nic.mac1609_4 	RXTXLostPackets 	0
scalar LocScenario.node[22].nic.mac1609_4 	TotalLostPackets 	0
scalar LocScenario.node[22].nic.mac1609_4 	DroppedPacketsInMac 	0
scalar LocScenario.node[22].nic.mac1609_4 	TooLittleTime 	0
scalar LocScenario.node[22].nic.mac1609_4 	TimesIntoBackoff 	2281
scalar LocScenario.node[22].nic.mac1609_4 	SlotsBackoff 	3361
scalar LocScenario.node[22].nic.mac1609_4 	NumInternalContention 	0
scalar LocScenario.node[22].nic.mac1609_4 	totalBusyTime 	1.251633
scalar LocScenario.node[22].veinsmobility 	startTime 	165.1
scalar LocScenario.node[22].veinsmobility 	totalTime 	228
scalar LocScenario.node[22].veinsmobility 	stopTime 	393.2
scalar LocScenario.node[22].veinsmobility 	minSpeed 	10.450026220211
scalar LocScenario.node[22].veinsmobility 	maxSpeed 	10.499961157958
scalar LocScenario.node[22].veinsmobility 	totalDistance 	2388.7525192673
scalar LocScenario.node[22].veinsmobility 	totalCO2Emission 	393.81367990809
scalar LocScenario.node[27].appl 	generatedWSMs 	0
scalar LocScenario.node[27].appl 	receivedWSMs 	0
scalar LocScenario.node[27].appl 	generatedBSMs 	2040
scalar LocScenario.node[27].appl 	receivedBSMs 	9322
scalar LocScenario.node[27].appl 	generatedWSAs 	0
scalar LocScenario.node[27].appl 	receivedWSAs 	0
scalar LocScenario.node[27].appl 	rmseSUMGPS 	760404.00737539
scalar LocScenario.node[27].appl 	rmseSUMCP 	721554.29866795
scalar LocScenario.node[27].appl 	delaySum 	1.0533941116211
scalar LocScenario.node[27].nic.phy80211p 	busyTime 	0.0048125490196076
scalar LocScenario.node[27].nic.mac1609_4 	ReceivedUnicastPackets 	0
scalar LocScenario.node[27].nic.mac1609_4 	ReceivedBroadcasts 	9322
scalar LocScenario.node[27].nic.mac1609_4 	SentPackets 	2040
scalar LocScenario.node[27].nic.mac1609_4 	SNIRLostPackets 	118
scalar LocScenario.node[27].nic.mac1609_4 	RXTXLostPackets 	0
scalar LocScenario.node[27].nic.mac1609_4 	TotalLostPackets 	118
scalar LocScenario.node[27].nic.mac1609_4 	DroppedPacketsInMac 	0
scalar LocScenario.node[27].nic.mac1609_4 	TooLittleTime 	0
scalar LocScenario.node[27].nic.mac1609_4 	TimesIntoBackoff 	2040
scalar LocScenario.node[27].nic.mac1609_4 	SlotsBackoff 	3013
scalar LocScenario.node[27].nic.mac1609_4 	NumInternalContention 	0
scalar LocScenario.node[27].nic.mac1609_4 	totalBusyTime 	1.189928
scalar LocScenario.node[27].veinsmobility 	startTime 	195.1
scalar LocScenario.node[27].veinsmobility 	totalTime 	203.9
scalar LocScenario.node[27].veinsmobility 	stopTime 	399.1
scalar LocScenario.node[27].veinsmobility 	minSpeed 	10.450043890299
scalar LocScenario.node[27].veinsmobility 	maxSpeed 	10.499997280596
scalar LocScenario.node[27].veinsmobility 	totalDistance 	2133.8289051122
scalar LocScenario.node[27].veinsmobility 	totalCO2Emission 	351.9412672026
scalar LocScenario.node[24].appl 	generatedWSMs 	0
scalar LocScenario.node[24].appl 	receivedWSMs 	0
scalar LocScenario.node[24].appl 	generatedBSMs 	2281
scalar LocScenario.node[24].appl 	receivedBSMs 	9947
scalar LocScenario.node[24].appl 	generatedWSAs 	0
scalar LocScenario.node[24].appl 	receivedWSAs 	0
scalar LocScenario.node[24].appl 	rmseSUMGPS 	26916.379926244
scalar LocScenario.node[24].appl 	rmseSUMCP 	432070.60429217
scalar LocScenario.node[24].appl 	delaySum 	-3.0177145138075e+204
scalar LocScenario.node[24].nic.phy80211p 	busyTime 	0.0045352389302936
scalar LocScenario.node[24].nic.mac1609_4 	ReceivedUnicastPackets 	0
scalar LocScenario.node[24].nic.mac1609_4 	ReceivedBroadcasts 	9947
scalar LocScenario.node[24].nic.mac1609_4 	SentPackets 	2281
scalar LocScenario.node[24].nic.mac1609_4 	SNIRLostPackets 	0
scalar LocScenario.node[24].nic.mac1609_4 	RXTXLostPackets 	0
scalar LocScenario.node[24].nic.mac1609_4 	TotalLostPackets 	0
scalar LocScenario.node[24].nic.mac1609_4 	DroppedPacketsInMac 	0
scalar LocScenario.node[24].nic.mac1609_4 	TooLittleTime 	0
scalar LocScenario.node[24].nic.mac1609_4 	TimesIntoBackoff 	2281
scalar LocScenario.node[24].nic.mac1609_4 	SlotsBackoff 	3470
scalar LocScenario.node[24].nic.mac1609_4 	NumInternalContention 	0
scalar LocScenario.node[24].nic.mac1609_4 	totalBusyTime 	1.273993
scalar LocScenario.node[24].veinsmobility 	startTime 	180.1
scalar LocScenario.node[24].veinsmobility 	totalTime 	228
scalar LocScenario.node[24].veinsmobility 	stopTime 	408.2
scalar LocScenario.node[24].veinsmobility 	minSpeed 	10.450010978593
scalar LocScenario.node[24].veinsmobility 	maxSpeed 	10.499982913968
scalar LocScenario.node[24].veinsmobility 	totalDistance 	2394.8431976693
scalar LocScenario.node[24].veinsmobility 	totalCO2Emission 	393.78478372874
scalar LocScenario.node[29].appl 	generatedWSMs 	0
scalar LocScenario.node[29].appl 	receivedWSMs 	0
scalar LocScenario.node[29].appl 	generatedBSMs 	2040
scalar LocScenario.node[29].appl 	receivedBSMs 	9536
scalar LocScenario.node[29].appl 	generatedWSAs 	0
scalar LocScenario.node[29].appl 	receivedWSAs 	0
scalar LocScenario.node[29].appl 	rmseSUMGPS 	756799.01780055
scalar LocScenario.node[29].appl 	rmseSUMCP 	445830.35983924
scalar LocScenario.node[29].appl 	delaySum 	1.0714541476629
scalar LocScenario.node[29].nic.phy80211p 	busyTime 	0.0048614901960782
scalar LocScenario.node[29].nic.mac1609_4 	ReceivedUnicastPackets 	0
scalar LocScenario.node[29].nic.mac1609_4 	ReceivedBroadcasts 	9536
scalar LocScenario.node[29].nic.mac1609_4 	SentPackets 	2040
scalar LocScenario.node[29].nic.mac1609_4 	SNIRLostPackets 	0
scalar LocScenario.node[29].nic.mac1609_4 	RXTXLostPackets 	0
scalar LocScenario.node[29].nic.mac1609_4 	TotalLostPackets 	0
scalar LocScenario.node[29].nic.mac1609_4 	DroppedPacketsInMac 	0
scalar LocScenario.node[29].nic.mac1609_4 	TooLittleTime 	0
scalar LocScenario.node[29].nic.mac1609_4 	TimesIntoBackoff 	2040
scalar LocScenario.node[29].nic.mac1609_4 	SlotsBackoff 	3127
scalar LocScenario.node[29].nic.mac1609_4 	NumInternalContention 	0
scalar LocScenario.node[29].nic.mac1609_4 	totalBusyTime 	1.205944
scalar LocScenario.node[29].veinsmobility 	startTime 	210.1
scalar LocScenario.node[29].veinsmobility 	totalTime 	203.9
scalar LocScenario.node[29].veinsmobility 	stopTime 	414.1
scalar LocScenario.node[29].veinsmobility 	minSpeed 	10.45006604779
scalar LocScenario.node[29].veinsmobility 	maxSpeed 	10.499950618146
scalar LocScenario.node[29].veinsmobility 	totalDistance 	2138.803545385
scalar LocScenario.node[29].veinsmobility 	totalCO2Emission 	351.4711831821
scalar LocScenario.node[26].appl 	generatedWSMs 	0
scalar LocScenario.node[26].appl 	receivedWSMs 	0
scalar LocScenario.node[26].appl 	generatedBSMs 	2281
scalar LocScenario.node[26].appl 	receivedBSMs 	10038
scalar LocScenario.node[26].appl 	generatedWSAs 	0
scalar LocScenario.node[26].appl 	receivedWSAs 	0
scalar LocScenario.node[26].appl 	rmseSUMGPS 	71059.967368651
scalar LocScenario.node[26].appl 	rmseSUMCP 	475264.23128204
scalar LocScenario.node[26].appl 	delaySum 	2.1897397621188e+144
scalar LocScenario.node[26].nic.phy80211p 	busyTime 	0.0045767295046032
scalar LocScenario.node[26].nic.mac1609_4 	ReceivedUnicastPackets 	0
scalar LocScenario.node[26].nic.mac1609_4 	ReceivedBroadcasts 	10038
scalar LocScenario.node[26].nic.mac1609_4 	SentPackets 	2281
scalar LocScenario.node[26].nic.mac1609_4 	SNIRLostPackets 	0
scalar LocScenario.node[26].nic.mac1609_4 	RXTXLostPackets 	0
scalar LocScenario.node[26].nic.mac1609_4 	TotalLostPackets 	0
scalar LocScenario.node[26].nic.mac1609_4 	DroppedPacketsInMac 	0
scalar LocScenario.node[26].nic.mac1609_4 	TooLittleTime 	0
scalar LocScenario.node[26].nic.mac1609_4 	TimesIntoBackoff 	2281
scalar LocScenario.node[26].nic.mac1609_4 	SlotsBackoff 	3426
scalar LocScenario.node[26].nic.mac1609_4 	NumInternalContention 	0
scalar LocScenario.node[26].nic.mac1609_4 	totalBusyTime 	1.283457
scalar LocScenario.node[26].veinsmobility 	startTime 	195.1
scalar LocScenario.node[26].veinsmobility 	totalTime 	228
scalar LocScenario.node[26].veinsmobility 	stopTime 	423.2
scalar LocScenario.node[26].veinsmobility 	minSpeed 	10.450023442402
scalar LocScenario.node[26].veinsmobility 	maxSpeed 	10.499941084464
scalar LocScenario.node[26].veinsmobility 	totalDistance 	2392.3610732843
scalar LocScenario.node[26].veinsmobility 	totalCO2Emission 	393.03591885599
scalar LocScenario.node[31].appl 	generatedWSMs 	0
scalar LocScenario.node[31].appl 	receivedWSMs 	0
scalar LocScenario.node[31].appl 	generatedBSMs 	2040
scalar LocScenario.node[31].appl 	receivedBSMs 	9560
scalar LocScenario.node[31].appl 	generatedWSAs 	0
scalar LocScenario.node[31].appl 	receivedWSAs 	0
scalar LocScenario.node[31].appl 	rmseSUMGPS 	688473.78092766
scalar LocScenario.node[31].appl 	rmseSUMCP 	1245856.6832961
scalar LocScenario.node[31].appl 	delaySum 	1.0706908613747
scalar LocScenario.node[31].nic.phy80211p 	busyTime 	0.0048737254901958
scalar LocScenario.node[31].nic.mac1609_4 	ReceivedUnicastPackets 	0
scalar LocScenario.node[31].nic.mac1609_4 	ReceivedBroadcasts 	9560
scalar LocScenario.node[31].nic.mac1609_4 	SentPackets 	2040
scalar LocScenario.node[31].nic.mac1609_4 	SNIRLostPackets 	0
scalar LocScenario.node[31].nic.mac1609_4 	RXTXLostPackets 	0
scalar LocScenario.node[31].nic.mac1609_4 	TotalLostPackets 	0
scalar LocScenario.node[31].nic.mac1609_4 	DroppedPacketsInMac 	0
scalar LocScenario.node[31].nic.mac1609_4 	TooLittleTime 	0
scalar LocScenario.node[31].nic.mac1609_4 	TimesIntoBackoff 	2040
scalar LocScenario.node[31].nic.mac1609_4 	SlotsBackoff 	3025
scalar LocScenario.node[31].nic.mac1609_4 	NumInternalContention 	0
scalar LocScenario.node[31].nic.mac1609_4 	totalBusyTime 	1.20844
scalar LocScenario.node[31].veinsmobility 	startTime 	225.1
scalar LocScenario.node[31].veinsmobility 	totalTime 	203.9
scalar LocScenario.node[31].veinsmobility 	stopTime 	429.1
scalar LocScenario.node[31].veinsmobility 	minSpeed 	10.450005683349
scalar LocScenario.node[31].veinsmobility 	maxSpeed 	10.49988773606
scalar LocScenario.node[31].veinsmobility 	totalDistance 	2138.736379695
scalar LocScenario.node[31].veinsmobility 	totalCO2Emission 	352.19358569176
scalar LocScenario.node[28].appl 	generatedWSMs 	0
scalar LocScenario.node[28].appl 	receivedWSMs 	0
scalar LocScenario.node[28].appl 	generatedBSMs 	2281
scalar LocScenario.node[28].appl 	receivedBSMs 	10040
scalar LocScenario.node[28].appl 	generatedWSAs 	0
scalar LocScenario.node[28].appl 	receivedWSAs 	0
scalar LocScenario.node[28].appl 	rmseSUMGPS 	53373.872236897
scalar LocScenario.node[28].appl 	rmseSUMCP 	469952.21430877
scalar LocScenario.node[28].appl 	delaySum 	1.1251352567334
scalar LocScenario.node[28].nic.phy80211p 	busyTime 	0.0045776413853573
scalar LocScenario.node[28].nic.mac1609_4 	ReceivedUnicastPackets 	0
scalar LocScenario.node[28].nic.mac1609_4 	ReceivedBroadcasts 	10040
scalar LocScenario.node[28].nic.mac1609_4 	SentPackets 	2281
scalar LocScenario.node[28].nic.mac1609_4 	SNIRLostPackets 	0
scalar LocScenario.node[28].nic.mac1609_4 	RXTXLostPackets 	0
scalar LocScenario.node[28].nic.mac1609_4 	TotalLostPackets 	0
scalar LocScenario.node[28].nic.mac1609_4 	DroppedPacketsInMac 	0
scalar LocScenario.node[28].nic.mac1609_4 	TooLittleTime 	0
scalar LocScenario.node[28].nic.mac1609_4 	TimesIntoBackoff 	2281
scalar LocScenario.node[28].nic.mac1609_4 	SlotsBackoff 	3424
scalar LocScenario.node[28].nic.mac1609_4 	NumInternalContention 	0
scalar LocScenario.node[28].nic.mac1609_4 	totalBusyTime 	1.283665
scalar LocScenario.node[28].veinsmobility 	startTime 	210.1
scalar LocScenario.node[28].veinsmobility 	totalTime 	228
scalar LocScenario.node[28].veinsmobility 	stopTime 	438.2
scalar LocScenario.node[28].veinsmobility 	minSpeed 	10.450002409064
scalar LocScenario.node[28].veinsmobility 	maxSpeed 	10.499966845813
scalar LocScenario.node[28].veinsmobility 	totalDistance 	2392.2416410239
scalar LocScenario.node[28].veinsmobility 	totalCO2Emission 	393.65264326178
scalar LocScenario.node[33].appl 	generatedWSMs 	0
scalar LocScenario.node[33].appl 	receivedWSMs 	0
scalar LocScenario.node[33].appl 	generatedBSMs 	2040
scalar LocScenario.node[33].appl 	receivedBSMs 	9559
scalar LocScenario.node[33].appl 	generatedWSAs 	0
scalar LocScenario.node[33].appl 	receivedWSAs 	0
scalar LocScenario.node[33].appl 	rmseSUMGPS 	793007.96556684
scalar LocScenario.node[33].appl 	rmseSUMCP 	707171.19390812
scalar LocScenario.node[33].appl 	delaySum 	1.0704157306314
scalar LocScenario.node[33].nic.phy80211p 	busyTime 	0.0048732156862742
scalar LocScenario.node[33].nic.mac1609_4 	ReceivedUnicastPackets 	0
scalar LocScenario.node[33].nic.mac1609_4 	ReceivedBroadcasts 	9559
scalar LocScenario.node[33].nic.mac1609_4 	SentPackets 	2040
scalar LocScenario.node[33].nic.mac1609_4 	SNIRLostPackets 	0
scalar LocScenario.node[33].nic.mac1609_4 	RXTXLostPackets 	0
scalar LocScenario.node[33].nic.mac1609_4 	TotalLostPackets 	0
scalar LocScenario.node[33].nic.mac1609_4 	DroppedPacketsInMac 	0
scalar LocScenario.node[33].nic.mac1609_4 	TooLittleTime 	0
scalar LocScenario.node[33].nic.mac1609_4 	TimesIntoBackoff 	2040
scalar LocScenario.node[33].nic.mac1609_4 	SlotsBackoff 	3050
scalar LocScenario.node[33].nic.mac1609_4 	NumInternalContention 	0
scalar LocScenario.node[33].nic.mac1609_4 	totalBusyTime 	1.208336
scalar LocScenario.node[33].veinsmobility 	startTime 	240.1
scalar LocScenario.node[33].veinsmobility 	totalTime 	203.9
scalar LocScenario.node[33].veinsmobility 	stopTime 	444.1
scalar LocScenario.node[33].veinsmobility 	minSpeed 	10.450041090709
scalar LocScenario.node[33].veinsmobility 	maxSpeed 	10.499996657437
scalar LocScenario.node[33].veinsmobility 	totalDistance 	2138.7441511356
scalar LocScenario.node[33].veinsmobility 	totalCO2Emission 	351.52785096857
scalar LocScenario.node[30].appl 	generatedWSMs 	0
scalar LocScenario.node[30].appl 	receivedWSMs 	0
scalar LocScenario.node[30].appl 	generatedBSMs 	2281
scalar LocScenario.node[30].appl 	receivedBSMs 	10039
scalar LocScenario.node[30].appl 	generatedWSAs 	0
scalar LocScenario.node[30].appl 	receivedWSAs 	0
scalar LocScenario.node[30].appl 	rmseSUMGPS 	780487.26014882
scalar LocScenario.node[30].appl 	rmseSUMCP 	461640.61266178
scalar LocScenario.node[30].appl 	delaySum 	1.1245993607697
scalar LocScenario.node[30].nic.phy80211p 	busyTime 	0.0045771854449802
scalar LocScenario.node[30].nic.mac1609_4 	ReceivedUnicastPackets 	0
scalar LocScenario.node[30].nic.mac1609_4 	ReceivedBroadcasts 	10039
scalar LocScenario.node[30].nic.mac1609_4 	SentPackets 	2281
scalar LocScenario.node[30].nic.mac1609_4 	SNIRLostPackets 	0
scalar LocScenario.node[30].nic.mac1609_4 	RXTXLostPackets 	0
scalar LocScenario.node[30].nic.mac1609_4 	TotalLostPackets 	0
scalar LocScenario.node[30].nic.mac1609_4 	DroppedPacketsInMac 	0
scalar LocScenario.node[30].nic.mac1609_4 	TooLittleTime 	0
scalar LocScenario.node[30].nic.mac1609_4 	TimesIntoBackoff 	2281
scalar LocScenario.node[30].nic.mac1609_4 	SlotsBackoff 	3430
scalar LocScenario.node[30].nic.mac1609_4 	NumInternalContention 	0
scalar LocScenario.node[30].nic.mac1609_4 	totalBusyTime 	1.283561
scalar LocScenario.node[30].veinsmobility 	startTime 	225.1
scalar LocScenario.node[30].veinsmobility 	totalTime 	228
scalar LocScenario.node[30].veinsmobility 	stopTime 	453.2
scalar LocScenario.node[30].veinsmobility 	minSpeed 	10.450081810344
scalar LocScenario.node[30].veinsmobility 	maxSpeed 	10.499998139683
scalar LocScenario.node[30].veinsmobility 	totalDistance 	2388.9128232568
scalar LocScenario.node[30].veinsmobility 	totalCO2Emission 	394.09057649776
scalar LocScenario.node[35].appl 	generatedWSMs 	0
scalar LocScenario.node[35].appl 	receivedWSMs 	0
scalar LocScenario.node[35].appl 	generatedBSMs 	2040
scalar LocScenario.node[35].appl 	receivedBSMs 	9554
scalar LocScenario.node[35].appl 	generatedWSAs 	0
scalar LocScenario.node[35].appl 	receivedWSAs 	0
scalar LocScenario.node[35].appl 	rmseSUMGPS 	774308.08991593
scalar LocScenario.node[35].appl 	rmseSUMCP 	730316.43281661
scalar LocScenario.node[35].appl 	delaySum 	1.0697638897919
scalar LocScenario.node[35].nic.phy80211p 	busyTime 	0.0048706666666664
scalar LocScenario.node[35].nic.mac1609_4 	ReceivedUnicastPackets 	0
scalar LocScenario.node[35].nic.mac1609_4 	ReceivedBroadcasts 	9554
scalar LocScenario.node[35].nic.mac1609_4 	SentPackets 	2040
scalar LocScenario.node[35].nic.mac1609_4 	SNIRLostPackets 	0
scalar LocScenario.node[35].nic.mac1609_4 	RXTXLostPackets 	0
scalar LocScenario.node[35].nic.mac1609_4 	TotalLostPackets 	0
scalar LocScenario.node[35].nic.mac1609_4 	DroppedPacketsInMac 	0
scalar LocScenario.node[35].nic.mac1609_4 	TooLittleTime 	0
scalar LocScenario.node[35].nic.mac1609_4 	TimesIntoBackoff 	2040
scalar LocScenario.node[35].nic.mac1609_4 	SlotsBackoff 	3138
scalar LocScenario.node[35].nic.mac1609_4 	NumInternalContention 	0
scalar LocScenario.node[35].nic.mac1609_4 	totalBusyTime 	1.207816
scalar LocScenario.node[35].veinsmobility 	startTime 	255.1
scalar LocScenario.node[35].veinsmobility 	totalTime 	203.9
scalar LocScenario.node[35].veinsmobility 	stopTime 	459.1
scalar LocScenario.node[35].veinsmobility 	minSpeed 	10.450019463606
scalar LocScenario.node[35].veinsmobility 	maxSpeed 	10.499931445508
scalar LocScenario.node[35].veinsmobility 	totalDistance 	2133.8486206498
scalar LocScenario.node[35].veinsmobility 	totalCO2Emission 	351.62228339234
scalar LocScenario.node[32].appl 	generatedWSMs 	0
scalar LocScenario.node[32].appl 	receivedWSMs 	0
scalar LocScenario.node[32].appl 	generatedBSMs 	2281
scalar LocScenario.node[32].appl 	receivedBSMs 	10037
scalar LocScenario.node[32].appl 	generatedWSAs 	0
scalar LocScenario.node[32].appl 	receivedWSAs 	0
scalar LocScenario.node[32].appl 	rmseSUMGPS 	628737.4659614
scalar LocScenario.node[32].appl 	rmseSUMCP 	456249.26323256
scalar LocScenario.node[32].appl 	delaySum 	1.1243779010131
scalar LocScenario.node[32].nic.phy80211p 	busyTime 	0.0045762735642262
scalar LocScenario.node[32].nic.mac1609_4 	ReceivedUnicastPackets 	0
scalar LocScenario.node[32].nic.mac1609_4 	ReceivedBroadcasts 	10037
scalar LocScenario.node[32].nic.mac1609_4 	SentPackets 	2281
scalar LocScenario.node[32].nic.mac1609_4 	SNIRLostPackets 	0
scalar LocScenario.node[32].nic.mac1609_4 	RXTXLostPackets 	0
scalar LocScenario.node[32].nic.mac1609_4 	TotalLostPackets 	0
scalar LocScenario.node[32].nic.mac1609_4 	DroppedPacketsInMac 	0
scalar LocScenario.node[32].nic.mac1609_4 	TooLittleTime 	0
scalar LocScenario.node[32].nic.mac1609_4 	TimesIntoBackoff 	2281
scalar LocScenario.node[32].nic.mac1609_4 	SlotsBackoff 	3396
scalar LocScenario.node[32].nic.mac1609_4 	NumInternalContention 	0
scalar LocScenario.node[32].nic.mac1609_4 	totalBusyTime 	1.283353
scalar LocScenario.node[32].veinsmobility 	startTime 	240.1
scalar LocScenario.node[32].veinsmobility 	totalTime 	228
scalar LocScenario.node[32].veinsmobility 	stopTime 	468.2
scalar LocScenario.node[32].veinsmobility 	minSpeed 	10.450178674597
scalar LocScenario.node[32].veinsmobility 	maxSpeed 	10.499943294551
scalar LocScenario.node[32].veinsmobility 	totalDistance 	2388.7730704601
scalar LocScenario.node[32].veinsmobility 	totalCO2Emission 	394.08377019894
scalar LocScenario.node[37].appl 	generatedWSMs 	0
scalar LocScenario.node[37].appl 	receivedWSMs 	0
scalar LocScenario.node[37].appl 	generatedBSMs 	2040
scalar LocScenario.node[37].appl 	receivedBSMs 	9553
scalar LocScenario.node[37].appl 	generatedWSAs 	0
scalar LocScenario.node[37].appl 	receivedWSAs 	0
scalar LocScenario.node[37].appl 	rmseSUMGPS 	751523.22592466
scalar LocScenario.node[37].appl 	rmseSUMCP 	690039.68461309
scalar LocScenario.node[37].appl 	delaySum 	1.0685601154587
scalar LocScenario.node[37].nic.phy80211p 	busyTime 	0.0048701568627448
scalar LocScenario.node[37].nic.mac1609_4 	ReceivedUnicastPackets 	0
scalar LocScenario.node[37].nic.mac1609_4 	ReceivedBroadcasts 	9553
scalar LocScenario.node[37].nic.mac1609_4 	SentPackets 	2040
scalar LocScenario.node[37].nic.mac1609_4 	SNIRLostPackets 	0
scalar LocScenario.node[37].nic.mac1609_4 	RXTXLostPackets 	0
scalar LocScenario.node[37].nic.mac1609_4 	TotalLostPackets 	0
scalar LocScenario.node[37].nic.mac1609_4 	DroppedPacketsInMac 	0
scalar LocScenario.node[37].nic.mac1609_4 	TooLittleTime 	0
scalar LocScenario.node[37].nic.mac1609_4 	TimesIntoBackoff 	2040
scalar LocScenario.node[37].nic.mac1609_4 	SlotsBackoff 	3071
scalar LocScenario.node[37].nic.mac1609_4 	NumInternalContention 	0
scalar LocScenario.node[37].nic.mac1609_4 	totalBusyTime 	1.207712
scalar LocScenario.node[37].veinsmobility 	startTime 	270.1
scalar LocScenario.node[37].veinsmobility 	totalTime 	203.9
scalar LocScenario.node[37].veinsmobility 	stopTime 	474.1
scalar LocScenario.node[37].veinsmobility 	minSpeed 	10.450003752986
scalar LocScenario.node[37].veinsmobility 	maxSpeed 	10.499989602307
scalar LocScenario.node[37].veinsmobility 	totalDistance 	2133.8265402147
scalar LocScenario.node[37].veinsmobility 	totalCO2Emission 	351.58869741049
scalar LocScenario.node[34].appl 	generatedWSMs 	0
scalar LocScenario.node[34].appl 	receivedWSMs 	0
scalar LocScenario.node[34].appl 	generatedBSMs 	2281
scalar LocScenario.node[34].appl 	receivedBSMs 	10038
scalar LocScenario.node[34].appl 	generatedWSAs 	0
scalar LocScenario.node[34].appl 	receivedWSAs 	0
scalar LocScenario.node[34].appl 	rmseSUMGPS 	434000.40823466
scalar LocScenario.node[34].appl 	rmseSUMCP 	475061.53596876
scalar LocScenario.node[34].appl 	delaySum 	1.1235594747322
scalar LocScenario.node[34].nic.phy80211p 	busyTime 	0.0045767295046032
scalar LocScenario.node[34].nic.mac1609_4 	ReceivedUnicastPackets 	0
scalar LocScenario.node[34].nic.mac1609_4 	ReceivedBroadcasts 	10038
scalar LocScenario.node[34].nic.mac1609_4 	SentPackets 	2281
scalar LocScenario.node[34].nic.mac1609_4 	SNIRLostPackets 	0
scalar LocScenario.node[34].nic.mac1609_4 	RXTXLostPackets 	0
scalar LocScenario.node[34].nic.mac1609_4 	TotalLostPackets 	0
scalar LocScenario.node[34].nic.mac1609_4 	DroppedPacketsInMac 	0
scalar LocScenario.node[34].nic.mac1609_4 	TooLittleTime 	0
scalar LocScenario.node[34].nic.mac1609_4 	TimesIntoBackoff 	2281
scalar LocScenario.node[34].nic.mac1609_4 	SlotsBackoff 	3446
scalar LocScenario.node[34].nic.mac1609_4 	NumInternalContention 	0
scalar LocScenario.node[34].nic.mac1609_4 	totalBusyTime 	1.283457
scalar LocScenario.node[34].veinsmobility 	startTime 	255.1
scalar LocScenario.node[34].veinsmobility 	totalTime 	228
scalar LocScenario.node[34].veinsmobility 	stopTime 	483.2
scalar LocScenario.node[34].veinsmobility 	minSpeed 	10.450011719856
scalar LocScenario.node[34].veinsmobility 	maxSpeed 	10.499998369685
scalar LocScenario.node[34].veinsmobility 	totalDistance 	2388.7360593667
scalar LocScenario.node[34].veinsmobility 	totalCO2Emission 	393.8819894524
scalar LocScenario.node[39].appl 	generatedWSMs 	0
scalar LocScenario.node[39].appl 	receivedWSMs 	0
scalar LocScenario.node[39].appl 	generatedBSMs 	2040
scalar LocScenario.node[39].appl 	receivedBSMs 	9558
scalar LocScenario.node[39].appl 	generatedWSAs 	0
scalar LocScenario.node[39].appl 	receivedWSAs 	0
scalar LocScenario.node[39].appl 	rmseSUMGPS 	919323.47425463
scalar LocScenario.node[39].appl 	rmseSUMCP 	439753.54449667
scalar LocScenario.node[39].appl 	delaySum 	1.0691125068599
scalar LocScenario.node[39].nic.phy80211p 	busyTime 	0.0048727058823527
scalar LocScenario.node[39].nic.mac1609_4 	ReceivedUnicastPackets 	0
scalar LocScenario.node[39].nic.mac1609_4 	ReceivedBroadcasts 	9558
scalar LocScenario.node[39].nic.mac1609_4 	SentPackets 	2040
scalar LocScenario.node[39].nic.mac1609_4 	SNIRLostPackets 	0
scalar LocScenario.node[39].nic.mac1609_4 	RXTXLostPackets 	0
scalar LocScenario.node[39].nic.mac1609_4 	TotalLostPackets 	0
scalar LocScenario.node[39].nic.mac1609_4 	DroppedPacketsInMac 	0
scalar LocScenario.node[39].nic.mac1609_4 	TooLittleTime 	0
scalar LocScenario.node[39].nic.mac1609_4 	TimesIntoBackoff 	2040
scalar LocScenario.node[39].nic.mac1609_4 	SlotsBackoff 	3015
scalar LocScenario.node[39].nic.mac1609_4 	NumInternalContention 	0
scalar LocScenario.node[39].nic.mac1609_4 	totalBusyTime 	1.208232
scalar LocScenario.node[39].veinsmobility 	startTime 	285.1
scalar LocScenario.node[39].veinsmobility 	totalTime 	203.9
scalar LocScenario.node[39].veinsmobility 	stopTime 	489.1
scalar LocScenario.node[39].veinsmobility 	minSpeed 	10.450011641823
scalar LocScenario.node[39].veinsmobility 	maxSpeed 	10.499980573473
scalar LocScenario.node[39].veinsmobility 	totalDistance 	2138.7607062575
scalar LocScenario.node[39].veinsmobility 	totalCO2Emission 	352.42049122918
scalar LocScenario.node[36].appl 	generatedWSMs 	0
scalar LocScenario.node[36].appl 	receivedWSMs 	0
scalar LocScenario.node[36].appl 	generatedBSMs 	2281
scalar LocScenario.node[36].appl 	receivedBSMs 	10039
scalar LocScenario.node[36].appl 	generatedWSAs 	0
scalar LocScenario.node[36].appl 	receivedWSAs 	0
scalar LocScenario.node[36].appl 	rmseSUMGPS 	21288.372934589
scalar LocScenario.node[36].appl 	rmseSUMCP 	473863.12081961
scalar LocScenario.node[36].appl 	delaySum 	1.1233936031309
scalar LocScenario.node[36].nic.phy80211p 	busyTime 	0.0045771854449802
scalar LocScenario.node[36].nic.mac1609_4 	ReceivedUnicastPackets 	0
scalar LocScenario.node[36].nic.mac1609_4 	ReceivedBroadcasts 	10039
scalar LocScenario.node[36].nic.mac1609_4 	SentPackets 	2281
scalar LocScenario.node[36].nic.mac1609_4 	SNIRLostPackets 	0
scalar LocScenario.node[36].nic.mac1609_4 	RXTXLostPackets 	0
scalar LocScenario.node[36].nic.mac1609_4 	TotalLostPackets 	0
scalar LocScenario.node[36].nic.mac1609_4 	DroppedPacketsInMac 	0
scalar LocScenario.node[36].nic.mac1609_4 	TooLittleTime 	0
scalar LocScenario.node[36].nic.mac1609_4 	TimesIntoBackoff 	2281
scalar LocScenario.node[36].nic.mac1609_4 	SlotsBackoff 	3436
scalar LocScenario.node[36].nic.mac1609_4 	NumInternalContention 	0
scalar LocScenario.node[36].nic.mac1609_4 	totalBusyTime 	1.283561
scalar LocScenario.node[36].veinsmobility 	startTime 	270.1
scalar LocScenario.node[36].veinsmobility 	totalTime 	228
scalar LocScenario.node[36].veinsmobility 	stopTime 	498.2
scalar LocScenario.node[36].veinsmobility 	minSpeed 	10.450000039604
scalar LocScenario.node[36].veinsmobility 	maxSpeed 	10.499932467833
scalar LocScenario.node[36].veinsmobility 	totalDistance 	2394.7075238163
scalar LocScenario.node[36].veinsmobility 	totalCO2Emission 	393.85896433522
scalar LocScenario.node[41].appl 	generatedWSMs 	0
scalar LocScenario.node[41].appl 	receivedWSMs 	0
scalar LocScenario.node[41].appl 	generatedBSMs 	2040
scalar LocScenario.node[41].appl 	receivedBSMs 	9555
scalar LocScenario.node[41].appl 	generatedWSAs 	0
scalar LocScenario.node[41].appl 	receivedWSAs 	0
scalar LocScenario.node[41].appl 	rmseSUMGPS 	1043107.9208359
scalar LocScenario.node[41].appl 	rmseSUMCP 	1239442.9012876
scalar LocScenario.node[41].appl 	delaySum 	1.0693475306572
scalar LocScenario.node[41].nic.phy80211p 	busyTime 	0.004871176470588
scalar LocScenario.node[41].nic.mac1609_4 	ReceivedUnicastPackets 	0
scalar LocScenario.node[41].nic.mac1609_4 	ReceivedBroadcasts 	9555
scalar LocScenario.node[41].nic.mac1609_4 	SentPackets 	2040
scalar LocScenario.node[41].nic.mac1609_4 	SNIRLostPackets 	0
scalar LocScenario.node[41].nic.mac1609_4 	RXTXLostPackets 	0
scalar LocScenario.node[41].nic.mac1609_4 	TotalLostPackets 	0
scalar LocScenario.node[41].nic.mac1609_4 	DroppedPacketsInMac 	0
scalar LocScenario.node[41].nic.mac1609_4 	TooLittleTime 	0
scalar LocScenario.node[41].nic.mac1609_4 	TimesIntoBackoff 	2040
scalar LocScenario.node[41].nic.mac1609_4 	SlotsBackoff 	3201
scalar LocScenario.node[41].nic.mac1609_4 	NumInternalContention 	0
scalar LocScenario.node[41].nic.mac1609_4 	totalBusyTime 	1.20792
scalar LocScenario.node[41].veinsmobility 	startTime 	300.1
scalar LocScenario.node[41].veinsmobility 	totalTime 	203.9
scalar LocScenario.node[41].veinsmobility 	stopTime 	504.1
scalar LocScenario.node[41].veinsmobility 	minSpeed 	10.450026407826
scalar LocScenario.node[41].veinsmobility 	maxSpeed 	10.499932429858
scalar LocScenario.node[41].veinsmobility 	totalDistance 	2133.8641101354
scalar LocScenario.node[41].veinsmobility 	totalCO2Emission 	351.62815553881
scalar LocScenario.node[38].appl 	generatedWSMs 	0
scalar LocScenario.node[38].appl 	receivedWSMs 	0
scalar LocScenario.node[38].appl 	generatedBSMs 	2281
scalar LocScenario.node[38].appl 	receivedBSMs 	10041
scalar LocScenario.node[38].appl 	generatedWSAs 	0
scalar LocScenario.node[38].appl 	receivedWSAs 	0
scalar LocScenario.node[38].appl 	rmseSUMGPS 	71400.801836536
scalar LocScenario.node[38].appl 	rmseSUMCP 	468209.72315666
scalar LocScenario.node[38].appl 	delaySum 	1.1251888010985
scalar LocScenario.node[38].nic.phy80211p 	busyTime 	0.0045780973257343
scalar LocScenario.node[38].nic.mac1609_4 	ReceivedUnicastPackets 	0
scalar LocScenario.node[38].nic.mac1609_4 	ReceivedBroadcasts 	10041
scalar LocScenario.node[38].nic.mac1609_4 	SentPackets 	2281
scalar LocScenario.node[38].nic.mac1609_4 	SNIRLostPackets 	0
scalar LocScenario.node[38].nic.mac1609_4 	RXTXLostPackets 	0
scalar LocScenario.node[38].nic.mac1609_4 	TotalLostPackets 	0
scalar LocScenario.node[38].nic.mac1609_4 	DroppedPacketsInMac 	0
scalar LocScenario.node[38].nic.mac1609_4 	TooLittleTime 	0
scalar LocScenario.node[38].nic.mac1609_4 	TimesIntoBackoff 	2281
scalar LocScenario.node[38].nic.mac1609_4 	SlotsBackoff 	3415
scalar LocScenario.node[38].nic.mac1609_4 	NumInternalContention 	0
scalar LocScenario.node[38].nic.mac1609_4 	totalBusyTime 	1.283769
scalar LocScenario.node[38].veinsmobility 	startTime 	285.1
scalar LocScenario.node[38].veinsmobility 	totalTime 	228
scalar LocScenario.node[38].veinsmobility 	stopTime 	513.2
scalar LocScenario.node[38].veinsmobility 	minSpeed 	10.450000753906
scalar LocScenario.node[38].veinsmobility 	maxSpeed 	10.499998241663
scalar LocScenario.node[38].veinsmobility 	totalDistance 	2392.3554526457
scalar LocScenario.node[38].veinsmobility 	totalCO2Emission 	392.99597969435
scalar LocScenario.node[43].appl 	generatedWSMs 	0
scalar LocScenario.node[43].appl 	receivedWSMs 	0
scalar LocScenario.node[43].appl 	generatedBSMs 	2040
scalar LocScenario.node[43].appl 	receivedBSMs 	9555
scalar LocScenario.node[43].appl 	generatedWSAs 	0
scalar LocScenario.node[43].appl 	receivedWSAs 	0
scalar LocScenario.node[43].appl 	rmseSUMGPS 	332440.33289343
scalar LocScenario.node[43].appl 	rmseSUMCP 	730226.78128061
scalar LocScenario.node[43].appl 	delaySum 	1.9936741386731
scalar LocScenario.node[43].nic.phy80211p 	busyTime 	0.004871176470588
scalar LocScenario.node[43].nic.mac1609_4 	ReceivedUnicastPackets 	0
scalar LocScenario.node[43].nic.mac1609_4 	ReceivedBroadcasts 	9555
scalar LocScenario.node[43].nic.mac1609_4 	SentPackets 	2040
scalar LocScenario.node[43].nic.mac1609_4 	SNIRLostPackets 	0
scalar LocScenario.node[43].nic.mac1609_4 	RXTXLostPackets 	0
scalar LocScenario.node[43].nic.mac1609_4 	TotalLostPackets 	0
scalar LocScenario.node[43].nic.mac1609_4 	DroppedPacketsInMac 	0
scalar LocScenario.node[43].nic.mac1609_4 	TooLittleTime 	0
scalar LocScenario.node[43].nic.mac1609_4 	TimesIntoBackoff 	2040
scalar LocScenario.node[43].nic.mac1609_4 	SlotsBackoff 	2969
scalar LocScenario.node[43].nic.mac1609_4 	NumInternalContention 	0
scalar LocScenario.node[43].nic.mac1609_4 	totalBusyTime 	1.20792
scalar LocScenario.node[43].veinsmobility 	startTime 	315.1
scalar LocScenario.node[43].veinsmobility 	totalTime 	203.9
scalar LocScenario.node[43].veinsmobility 	stopTime 	519.1
scalar LocScenario.node[43].veinsmobility 	minSpeed 	10.450036777032
scalar LocScenario.node[43].veinsmobility 	maxSpeed 	10.499986558419
scalar LocScenario.node[43].veinsmobility 	totalDistance 	2133.9597664083
scalar LocScenario.node[43].veinsmobility 	totalCO2Emission 	351.68979896103
scalar LocScenario.node[40].appl 	generatedWSMs 	0
scalar LocScenario.node[40].appl 	receivedWSMs 	0
scalar LocScenario.node[40].appl 	generatedBSMs 	2281
scalar LocScenario.node[40].appl 	receivedBSMs 	10030
scalar LocScenario.node[40].appl 	generatedWSAs 	0
scalar LocScenario.node[40].appl 	receivedWSAs 	0
scalar LocScenario.node[40].appl 	rmseSUMGPS 	1009435.394527
scalar LocScenario.node[40].appl 	rmseSUMCP 	482557.13029013
scalar LocScenario.node[40].appl 	delaySum 	1.1232450939547
scalar LocScenario.node[40].nic.phy80211p 	busyTime 	0.0045758176238491
scalar LocScenario.node[40].nic.mac1609_4 	ReceivedUnicastPackets 	0
scalar LocScenario.node[40].nic.mac1609_4 	ReceivedBroadcasts 	10030
scalar LocScenario.node[40].nic.mac1609_4 	SentPackets 	2281
scalar LocScenario.node[40].nic.mac1609_4 	SNIRLostPackets 	6
scalar LocScenario.node[40].nic.mac1609_4 	RXTXLostPackets 	0
scalar LocScenario.node[40].nic.mac1609_4 	TotalLostPackets 	6
scalar LocScenario.node[40].nic.mac1609_4 	DroppedPacketsInMac 	0
scalar LocScenario.node[40].nic.mac1609_4 	TooLittleTime 	0
scalar LocScenario.node[40].nic.mac1609_4 	TimesIntoBackoff 	2281
scalar LocScenario.node[40].nic.mac1609_4 	SlotsBackoff 	3445
[...]
scalar LocScenario.node[591].veinsmobility 	totalTime 	203.9
scalar LocScenario.node[591].veinsmobility 	stopTime 	4629.1
scalar LocScenario.node[591].veinsmobility 	minSpeed 	10.450004341477
scalar LocScenario.node[591].veinsmobility 	maxSpeed 	10.499959849089
scalar LocScenario.node[591].veinsmobility 	totalDistance 	2138.7205978709
scalar LocScenario.node[591].veinsmobility 	totalCO2Emission 	351.72280206157
scalar LocScenario.node[588].appl 	generatedWSMs 	0
scalar LocScenario.node[588].appl 	receivedWSMs 	0
scalar LocScenario.node[588].appl 	generatedBSMs 	2281
scalar LocScenario.node[588].appl 	receivedBSMs 	8299
scalar LocScenario.node[588].appl 	generatedWSAs 	0
scalar LocScenario.node[588].appl 	receivedWSAs 	0
scalar LocScenario.node[588].appl 	rmseSUMGPS 	71110.108694015
scalar LocScenario.node[588].appl 	rmseSUMCP 	1365811.8029542
scalar LocScenario.node[588].appl 	delaySum 	2.0540112426715
scalar LocScenario.node[588].nic.phy80211p 	busyTime 	0.003783849188952
scalar LocScenario.node[588].nic.mac1609_4 	ReceivedUnicastPackets 	0
scalar LocScenario.node[588].nic.mac1609_4 	ReceivedBroadcasts 	8299
scalar LocScenario.node[588].nic.mac1609_4 	SentPackets 	2281
scalar LocScenario.node[588].nic.mac1609_4 	SNIRLostPackets 	0
scalar LocScenario.node[588].nic.mac1609_4 	RXTXLostPackets 	0
scalar LocScenario.node[588].nic.mac1609_4 	TotalLostPackets 	0
scalar LocScenario.node[588].nic.mac1609_4 	DroppedPacketsInMac 	0
scalar LocScenario.node[588].nic.mac1609_4 	TooLittleTime 	0
scalar LocScenario.node[588].nic.mac1609_4 	TimesIntoBackoff 	2281
scalar LocScenario.node[588].nic.mac1609_4 	SlotsBackoff 	3380
scalar LocScenario.node[588].nic.mac1609_4 	NumInternalContention 	0
scalar LocScenario.node[588].nic.mac1609_4 	totalBusyTime 	1.102601
scalar LocScenario.node[588].veinsmobility 	startTime 	4410.1
scalar LocScenario.node[588].veinsmobility 	totalTime 	228
scalar LocScenario.node[588].veinsmobility 	stopTime 	4638.2
scalar LocScenario.node[588].veinsmobility 	minSpeed 	10.450040119898
scalar LocScenario.node[588].veinsmobility 	maxSpeed 	10.499994312366
scalar LocScenario.node[588].veinsmobility 	totalDistance 	2394.7826931044
scalar LocScenario.node[588].veinsmobility 	totalCO2Emission 	393.82504446904
scalar LocScenario.node[593].appl 	generatedWSMs 	0
scalar LocScenario.node[593].appl 	receivedWSMs 	0
scalar LocScenario.node[593].appl 	generatedBSMs 	2040
scalar LocScenario.node[593].appl 	receivedBSMs 	7518
scalar LocScenario.node[593].appl 	generatedWSAs 	0
scalar LocScenario.node[593].appl 	receivedWSAs 	0
scalar LocScenario.node[593].appl 	rmseSUMGPS 	322811.01928742
scalar LocScenario.node[593].appl 	rmseSUMCP 	577287.05659735
scalar LocScenario.node[593].appl 	delaySum 	18.23680114249
scalar LocScenario.node[593].nic.phy80211p 	busyTime 	0.0038327058823528
scalar LocScenario.node[593].nic.mac1609_4 	ReceivedUnicastPackets 	0
scalar LocScenario.node[593].nic.mac1609_4 	ReceivedBroadcasts 	7518
scalar LocScenario.node[593].nic.mac1609_4 	SentPackets 	2040
scalar LocScenario.node[593].nic.mac1609_4 	SNIRLostPackets 	0
scalar LocScenario.node[593].nic.mac1609_4 	RXTXLostPackets 	0
scalar LocScenario.node[593].nic.mac1609_4 	TotalLostPackets 	0
scalar LocScenario.node[593].nic.mac1609_4 	DroppedPacketsInMac 	0
scalar LocScenario.node[593].nic.mac1609_4 	TooLittleTime 	0
scalar LocScenario.node[593].nic.mac1609_4 	TimesIntoBackoff 	2040
scalar LocScenario.node[593].nic.mac1609_4 	SlotsBackoff 	3068
scalar LocScenario.node[593].nic.mac1609_4 	NumInternalContention 	0
scalar LocScenario.node[593].nic.mac1609_4 	totalBusyTime 	0.996072
scalar LocScenario.node[593].veinsmobility 	startTime 	4440.1
scalar LocScenario.node[593].veinsmobility 	totalTime 	203.9
scalar LocScenario.node[593].veinsmobility 	stopTime 	4644.1
scalar LocScenario.node[593].veinsmobility 	minSpeed 	10.450008452951
scalar LocScenario.node[593].veinsmobility 	maxSpeed 	10.499959483044
scalar LocScenario.node[593].veinsmobility 	totalDistance 	2138.7577309946
scalar LocScenario.node[593].veinsmobility 	totalCO2Emission 	351.29014192578
scalar LocScenario.node[590].appl 	generatedWSMs 	0
scalar LocScenario.node[590].appl 	receivedWSMs 	0
scalar LocScenario.node[590].appl 	generatedBSMs 	2281
scalar LocScenario.node[590].appl 	receivedBSMs 	8076
scalar LocScenario.node[590].appl 	generatedWSAs 	0
scalar LocScenario.node[590].appl 	receivedWSAs 	0
scalar LocScenario.node[590].appl 	rmseSUMGPS 	1024140.41869
scalar LocScenario.node[590].appl 	rmseSUMCP 	1465899.0189468
scalar LocScenario.node[590].appl 	delaySum 	0.90456256409834
scalar LocScenario.node[590].nic.phy80211p 	busyTime 	0.0036821744848749
scalar LocScenario.node[590].nic.mac1609_4 	ReceivedUnicastPackets 	0
scalar LocScenario.node[590].nic.mac1609_4 	ReceivedBroadcasts 	8076
scalar LocScenario.node[590].nic.mac1609_4 	SentPackets 	2281
scalar LocScenario.node[590].nic.mac1609_4 	SNIRLostPackets 	0
scalar LocScenario.node[590].nic.mac1609_4 	RXTXLostPackets 	0
scalar LocScenario.node[590].nic.mac1609_4 	TotalLostPackets 	0
scalar LocScenario.node[590].nic.mac1609_4 	DroppedPacketsInMac 	0
scalar LocScenario.node[590].nic.mac1609_4 	TooLittleTime 	0
scalar LocScenario.node[590].nic.mac1609_4 	TimesIntoBackoff 	2281
scalar LocScenario.node[590].nic.mac1609_4 	SlotsBackoff 	3423
scalar LocScenario.node[590].nic.mac1609_4 	NumInternalContention 	0
scalar LocScenario.node[590].nic.mac1609_4 	totalBusyTime 	1.079409
scalar LocScenario.node[590].veinsmobility 	startTime 	4425.1
scalar LocScenario.node[590].veinsmobility 	totalTime 	228
scalar LocScenario.node[590].veinsmobility 	stopTime 	4653.2
scalar LocScenario.node[590].veinsmobility 	minSpeed 	10.450000362017
scalar LocScenario.node[590].veinsmobility 	maxSpeed 	10.499975346134
scalar LocScenario.node[590].veinsmobility 	totalDistance 	2388.8310744299
scalar LocScenario.node[590].veinsmobility 	totalCO2Emission 	393.59076572176
scalar LocScenario.node[595].appl 	generatedWSMs 	0
scalar LocScenario.node[595].appl 	receivedWSMs 	0
scalar LocScenario.node[595].appl 	generatedBSMs 	2040
scalar LocScenario.node[595].appl 	receivedBSMs 	7296
scalar LocScenario.node[595].appl 	generatedWSAs 	0
scalar LocScenario.node[595].appl 	receivedWSAs 	0
scalar LocScenario.node[595].appl 	rmseSUMGPS 	638495.30877606
scalar LocScenario.node[595].appl 	rmseSUMCP 	1161468.1165976
scalar LocScenario.node[595].appl 	delaySum 	1.9220410411372
scalar LocScenario.node[595].nic.phy80211p 	busyTime 	0.0037195294117645
scalar LocScenario.node[595].nic.mac1609_4 	ReceivedUnicastPackets 	0
scalar LocScenario.node[595].nic.mac1609_4 	ReceivedBroadcasts 	7296
scalar LocScenario.node[595].nic.mac1609_4 	SentPackets 	2040
scalar LocScenario.node[595].nic.mac1609_4 	SNIRLostPackets 	0
scalar LocScenario.node[595].nic.mac1609_4 	RXTXLostPackets 	0
scalar LocScenario.node[595].nic.mac1609_4 	TotalLostPackets 	0
scalar LocScenario.node[595].nic.mac1609_4 	DroppedPacketsInMac 	0
scalar LocScenario.node[595].nic.mac1609_4 	TooLittleTime 	0
scalar LocScenario.node[595].nic.mac1609_4 	TimesIntoBackoff 	2040
scalar LocScenario.node[595].nic.mac1609_4 	SlotsBackoff 	3102
scalar LocScenario.node[595].nic.mac1609_4 	NumInternalContention 	0
scalar LocScenario.node[595].nic.mac1609_4 	totalBusyTime 	0.972984
scalar LocScenario.node[595].veinsmobility 	startTime 	4455.1
scalar LocScenario.node[595].veinsmobility 	totalTime 	203.9
scalar LocScenario.node[595].veinsmobility 	stopTime 	4659.1
scalar LocScenario.node[595].veinsmobility 	minSpeed 	10.450025906181
scalar LocScenario.node[595].veinsmobility 	maxSpeed 	10.499987905612
scalar LocScenario.node[595].veinsmobility 	totalDistance 	2138.7485816677
scalar LocScenario.node[595].veinsmobility 	totalCO2Emission 	352.3645382504
scalar LocScenario.node[592].appl 	generatedWSMs 	0
scalar LocScenario.node[592].appl 	receivedWSMs 	0
scalar LocScenario.node[592].appl 	generatedBSMs 	2281
scalar LocScenario.node[592].appl 	receivedBSMs 	7856
scalar LocScenario.node[592].appl 	generatedWSAs 	0
scalar LocScenario.node[592].appl 	receivedWSAs 	0
scalar LocScenario.node[592].appl 	rmseSUMGPS 	53936.974863758
scalar LocScenario.node[592].appl 	rmseSUMCP 	1510889.7001775
scalar LocScenario.node[592].appl 	delaySum 	2.3347869403024
scalar LocScenario.node[592].nic.phy80211p 	busyTime 	0.0035818676019288
scalar LocScenario.node[592].nic.mac1609_4 	ReceivedUnicastPackets 	0
scalar LocScenario.node[592].nic.mac1609_4 	ReceivedBroadcasts 	7856
scalar LocScenario.node[592].nic.mac1609_4 	SentPackets 	2281
scalar LocScenario.node[592].nic.mac1609_4 	SNIRLostPackets 	0
scalar LocScenario.node[592].nic.mac1609_4 	RXTXLostPackets 	0
scalar LocScenario.node[592].nic.mac1609_4 	TotalLostPackets 	0
scalar LocScenario.node[592].nic.mac1609_4 	DroppedPacketsInMac 	0
scalar LocScenario.node[592].nic.mac1609_4 	TooLittleTime 	0
scalar LocScenario.node[592].nic.mac1609_4 	TimesIntoBackoff 	2281
scalar LocScenario.node[592].nic.mac1609_4 	SlotsBackoff 	3548
scalar LocScenario.node[592].nic.mac1609_4 	NumInternalContention 	0
scalar LocScenario.node[592].nic.mac1609_4 	totalBusyTime 	1.056529
scalar LocScenario.node[592].veinsmobility 	startTime 	4440.1
scalar LocScenario.node[592].veinsmobility 	totalTime 	228
scalar LocScenario.node[592].veinsmobility 	stopTime 	4668.2
scalar LocScenario.node[592].veinsmobility 	minSpeed 	10.450004604447
scalar LocScenario.node[592].veinsmobility 	maxSpeed 	10.499991801765
scalar LocScenario.node[592].veinsmobility 	totalDistance 	2392.2792938158
scalar LocScenario.node[592].veinsmobility 	totalCO2Emission 	393.29848657013
scalar LocScenario.node[597].appl 	generatedWSMs 	0
scalar LocScenario.node[597].appl 	receivedWSMs 	0
scalar LocScenario.node[597].appl 	generatedBSMs 	2040
scalar LocScenario.node[597].appl 	receivedBSMs 	7072
scalar LocScenario.node[597].appl 	generatedWSAs 	0
scalar LocScenario.node[597].appl 	receivedWSAs 	0
scalar LocScenario.node[597].appl 	rmseSUMGPS 	716572.14524919
scalar LocScenario.node[597].appl 	rmseSUMCP 	1222473.4126369
scalar LocScenario.node[597].appl 	delaySum 	0.79148717871067
scalar LocScenario.node[597].nic.phy80211p 	busyTime 	0.0036053333333332
scalar LocScenario.node[597].nic.mac1609_4 	ReceivedUnicastPackets 	0
scalar LocScenario.node[597].nic.mac1609_4 	ReceivedBroadcasts 	7072
scalar LocScenario.node[597].nic.mac1609_4 	SentPackets 	2040
scalar LocScenario.node[597].nic.mac1609_4 	SNIRLostPackets 	0
scalar LocScenario.node[597].nic.mac1609_4 	RXTXLostPackets 	0
scalar LocScenario.node[597].nic.mac1609_4 	TotalLostPackets 	0
scalar LocScenario.node[597].nic.mac1609_4 	DroppedPacketsInMac 	0
scalar LocScenario.node[597].nic.mac1609_4 	TooLittleTime 	0
scalar LocScenario.node[597].nic.mac1609_4 	TimesIntoBackoff 	2040
scalar LocScenario.node[597].nic.mac1609_4 	SlotsBackoff 	3025
scalar LocScenario.node[597].nic.mac1609_4 	NumInternalContention 	0
scalar LocScenario.node[597].nic.mac1609_4 	totalBusyTime 	0.949688
scalar LocScenario.node[597].veinsmobility 	startTime 	4470.1
scalar LocScenario.node[597].veinsmobility 	totalTime 	203.9
scalar LocScenario.node[597].veinsmobility 	stopTime 	4674.1
scalar LocScenario.node[597].veinsmobility 	minSpeed 	10.450012207415
scalar LocScenario.node[597].veinsmobility 	maxSpeed 	10.499962416198
scalar LocScenario.node[597].veinsmobility 	totalDistance 	2133.820676092
scalar LocScenario.node[597].veinsmobility 	totalCO2Emission 	351.55439602466
scalar LocScenario.node[594].appl 	generatedWSMs 	0
scalar LocScenario.node[594].appl 	receivedWSMs 	0
scalar LocScenario.node[594].appl 	generatedBSMs 	2281
scalar LocScenario.node[594].appl 	receivedBSMs 	7603
scalar LocScenario.node[594].appl 	generatedWSAs 	0
scalar LocScenario.node[594].appl 	receivedWSAs 	0
scalar LocScenario.node[594].appl 	rmseSUMGPS 	110572.74752012
scalar LocScenario.node[594].appl 	rmseSUMCP 	1590535.8378681
scalar LocScenario.node[594].appl 	delaySum 	5.2378338820613
scalar LocScenario.node[594].nic.phy80211p 	busyTime 	0.0034797369574746
scalar LocScenario.node[594].nic.mac1609_4 	ReceivedUnicastPackets 	0
scalar LocScenario.node[594].nic.mac1609_4 	ReceivedBroadcasts 	7603
scalar LocScenario.node[594].nic.mac1609_4 	SentPackets 	2281
scalar LocScenario.node[594].nic.mac1609_4 	SNIRLostPackets 	29
scalar LocScenario.node[594].nic.mac1609_4 	RXTXLostPackets 	0
scalar LocScenario.node[594].nic.mac1609_4 	TotalLostPackets 	29
scalar LocScenario.node[594].nic.mac1609_4 	DroppedPacketsInMac 	0
scalar LocScenario.node[594].nic.mac1609_4 	TooLittleTime 	0
scalar LocScenario.node[594].nic.mac1609_4 	TimesIntoBackoff 	2281
scalar LocScenario.node[594].nic.mac1609_4 	SlotsBackoff 	3480
scalar LocScenario.node[594].nic.mac1609_4 	NumInternalContention 	0
scalar LocScenario.node[594].nic.mac1609_4 	totalBusyTime 	1.033233
scalar LocScenario.node[594].veinsmobility 	startTime 	4455.1
scalar LocScenario.node[594].veinsmobility 	totalTime 	228
scalar LocScenario.node[594].veinsmobility 	stopTime 	4683.2
scalar LocScenario.node[594].veinsmobility 	minSpeed 	10.450029052247
scalar LocScenario.node[594].veinsmobility 	maxSpeed 	10.499969792948
scalar LocScenario.node[594].veinsmobility 	totalDistance 	2392.2503481596
scalar LocScenario.node[594].veinsmobility 	totalCO2Emission 	393.00218041968
scalar LocScenario.node[599].appl 	generatedWSMs 	0
scalar LocScenario.node[599].appl 	receivedWSMs 	0
scalar LocScenario.node[599].appl 	generatedBSMs 	2040
scalar LocScenario.node[599].appl 	receivedBSMs 	4963
scalar LocScenario.node[599].appl 	generatedWSAs 	0
scalar LocScenario.node[599].appl 	receivedWSAs 	0
scalar LocScenario.node[599].appl 	rmseSUMGPS 	844598.92978758
scalar LocScenario.node[599].appl 	rmseSUMCP 	1556333.7167537
scalar LocScenario.node[599].appl 	delaySum 	0.55540121172635
scalar LocScenario.node[599].nic.phy80211p 	busyTime 	0.002530156862745
scalar LocScenario.node[599].nic.mac1609_4 	ReceivedUnicastPackets 	0
scalar LocScenario.node[599].nic.mac1609_4 	ReceivedBroadcasts 	4963
scalar LocScenario.node[599].nic.mac1609_4 	SentPackets 	2040
scalar LocScenario.node[599].nic.mac1609_4 	SNIRLostPackets 	0
scalar LocScenario.node[599].nic.mac1609_4 	RXTXLostPackets 	0
scalar LocScenario.node[599].nic.mac1609_4 	TotalLostPackets 	0
scalar LocScenario.node[599].nic.mac1609_4 	DroppedPacketsInMac 	0
scalar LocScenario.node[599].nic.mac1609_4 	TooLittleTime 	0
scalar LocScenario.node[599].nic.mac1609_4 	TimesIntoBackoff 	2040
scalar LocScenario.node[599].nic.mac1609_4 	SlotsBackoff 	3076
scalar LocScenario.node[599].nic.mac1609_4 	NumInternalContention 	0
scalar LocScenario.node[599].nic.mac1609_4 	totalBusyTime 	0.730352
scalar LocScenario.node[599].veinsmobility 	startTime 	4485.1
scalar LocScenario.node[599].veinsmobility 	totalTime 	203.9
scalar LocScenario.node[599].veinsmobility 	stopTime 	4689.1
scalar LocScenario.node[599].veinsmobility 	minSpeed 	10.450002952537
scalar LocScenario.node[599].veinsmobility 	maxSpeed 	10.499979770416
scalar LocScenario.node[599].veinsmobility 	totalDistance 	2138.7017430663
scalar LocScenario.node[599].veinsmobility 	totalCO2Emission 	351.87641927422
scalar LocScenario.node[596].appl 	generatedWSMs 	0
scalar LocScenario.node[596].appl 	receivedWSMs 	0
scalar LocScenario.node[596].appl 	generatedBSMs 	2281
scalar LocScenario.node[596].appl 	receivedBSMs 	7245
scalar LocScenario.node[596].appl 	generatedWSAs 	0
scalar LocScenario.node[596].appl 	receivedWSAs 	0
scalar LocScenario.node[596].appl 	rmseSUMGPS 	573914.36448914
scalar LocScenario.node[596].appl 	rmseSUMCP 	1714255.2180981
scalar LocScenario.node[596].appl 	delaySum 	9.9835195245678
scalar LocScenario.node[596].nic.phy80211p 	busyTime 	0.0033785181937745
scalar LocScenario.node[596].nic.mac1609_4 	ReceivedUnicastPackets 	0
scalar LocScenario.node[596].nic.mac1609_4 	ReceivedBroadcasts 	7245
scalar LocScenario.node[596].nic.mac1609_4 	SentPackets 	2281
scalar LocScenario.node[596].nic.mac1609_4 	SNIRLostPackets 	165
scalar LocScenario.node[596].nic.mac1609_4 	RXTXLostPackets 	0
scalar LocScenario.node[596].nic.mac1609_4 	TotalLostPackets 	165
scalar LocScenario.node[596].nic.mac1609_4 	DroppedPacketsInMac 	0
scalar LocScenario.node[596].nic.mac1609_4 	TooLittleTime 	0
scalar LocScenario.node[596].nic.mac1609_4 	TimesIntoBackoff 	2281
scalar LocScenario.node[596].nic.mac1609_4 	SlotsBackoff 	3378
scalar LocScenario.node[596].nic.mac1609_4 	NumInternalContention 	0
scalar LocScenario.node[596].nic.mac1609_4 	totalBusyTime 	1.002345
scalar LocScenario.node[596].veinsmobility 	startTime 	4470.1
scalar LocScenario.node[596].veinsmobility 	totalTime 	228
scalar LocScenario.node[596].veinsmobility 	stopTime 	4698.2
scalar LocScenario.node[596].veinsmobility 	minSpeed 	10.450063664361
scalar LocScenario.node[596].veinsmobility 	maxSpeed 	10.499979621812
scalar LocScenario.node[596].veinsmobility 	totalDistance 	2388.8435328385
scalar LocScenario.node[596].veinsmobility 	totalCO2Emission 	393.62790727985
scalar LocScenario.node[598].appl 	generatedWSMs 	0
scalar LocScenario.node[598].appl 	receivedWSMs 	0
scalar LocScenario.node[598].appl 	generatedBSMs 	2281
scalar LocScenario.node[598].appl 	receivedBSMs 	5057
scalar LocScenario.node[598].appl 	generatedWSAs 	0
scalar LocScenario.node[598].appl 	receivedWSAs 	0
scalar LocScenario.node[598].appl 	rmseSUMGPS 	801458.64241932
scalar LocScenario.node[598].appl 	rmseSUMCP 	1999170.9420352
scalar LocScenario.node[598].appl 	delaySum 	2.7654798201984
scalar LocScenario.node[598].nic.phy80211p 	busyTime 	0.0023056904866286
scalar LocScenario.node[598].nic.mac1609_4 	ReceivedUnicastPackets 	0
scalar LocScenario.node[598].nic.mac1609_4 	ReceivedBroadcasts 	5057
scalar LocScenario.node[598].nic.mac1609_4 	SentPackets 	2281
scalar LocScenario.node[598].nic.mac1609_4 	SNIRLostPackets 	0
scalar LocScenario.node[598].nic.mac1609_4 	RXTXLostPackets 	0
scalar LocScenario.node[598].nic.mac1609_4 	TotalLostPackets 	0
scalar LocScenario.node[598].nic.mac1609_4 	DroppedPacketsInMac 	0
scalar LocScenario.node[598].nic.mac1609_4 	TooLittleTime 	0
scalar LocScenario.node[598].nic.mac1609_4 	TimesIntoBackoff 	2503
scalar LocScenario.node[598].nic.mac1609_4 	SlotsBackoff 	3712
scalar LocScenario.node[598].nic.mac1609_4 	NumInternalContention 	0
scalar LocScenario.node[598].nic.mac1609_4 	totalBusyTime 	0.765433
scalar LocScenario.node[598].veinsmobility 	startTime 	4485.1
scalar LocScenario.node[598].veinsmobility 	totalTime 	228
scalar LocScenario.node[598].veinsmobility 	stopTime 	4713.2
scalar LocScenario.node[598].veinsmobility 	minSpeed 	10.450026784965
scalar LocScenario.node[598].veinsmobility 	maxSpeed 	10.499989587057
scalar LocScenario.node[598].veinsmobility 	totalDistance 	2388.8316777432
scalar LocScenario.node[598].veinsmobility 	totalCO2Emission 	393.00123330727
scalar LocScenario.outagesServer.appl 	generatedWSMs 	0
scalar LocScenario.outagesServer.appl 	receivedWSMs 	0
scalar LocScenario.outagesServer.appl 	generatedBSMs 	0
scalar LocScenario.outagesServer.appl 	receivedBSMs 	0
scalar LocScenario.outagesServer.appl 	generatedWSAs 	0
scalar LocScenario.outagesServer.appl 	receivedWSAs 	0
scalar LocScenario.outagesServer.nic.phy80211p 	busyTime 	0
scalar LocScenario.outagesServer.nic.mac1609_4 	ReceivedUnicastPackets 	0
scalar LocScenario.outagesServer.nic.mac1609_4 	ReceivedBroadcasts 	0
scalar LocScenario.outagesServer.nic.mac1609_4 	SentPackets 	0
scalar LocScenario.outagesServer.nic.mac1609_4 	SNIRLostPackets 	0
scalar LocScenario.outagesServer.nic.mac1609_4 	RXTXLostPackets 	0
scalar LocScenario.outagesServer.nic.mac1609_4 	TotalLostPackets 	0
scalar LocScenario.outagesServer.nic.mac1609_4 	DroppedPacketsInMac 	0
scalar LocScenario.outagesServer.nic.mac1609_4 	TooLittleTime 	0
scalar LocScenario.outagesServer.nic.mac1609_4 	TimesIntoBackoff 	0
scalar LocScenario.outagesServer.nic.mac1609_4 	SlotsBackoff 	0
scalar LocScenario.outagesServer.nic.mac1609_4 	NumInternalContention 	0
scalar LocScenario.outagesServer.nic.mac1609_4 	totalBusyTime 	0
