version 2
run DMAT-70-20171112-23:39:37-28280
attr configname DMAT
attr datetime 20171112-23:39:37
attr experiment DMAT
attr hops 3
attr inifile omnetpp.ini
attr iterationvars "$logVehPeriod=10, $hops=3"
attr iterationvars2 "$logVehPeriod=10, $hops=3, $repetition=0"
attr logVehPeriod 10
attr measurement "$logVehPeriod=10, $hops=3"
attr network com.liborio.cooppos.LocScenario
attr processid 28280
attr repetition 0
attr replication #0
attr resultdir results
attr runnumber 70
attr seedset 0
param **.coreDebug false
param **.debug false
param *.annotations.draw false
param *.connectionManager.drawMaxIntfDist false
param *.connectionManager.maxInterfDist 600m
param *.connectionManager.sendDirect true
param *.manager.autoShutdown true
param *.manager.host "\"localhost\""
param *.manager.launchConfig "xmldoc(\"dmat-\"+string(${logVehPeriod = 15, 10, 5, 3, 1})+\".launchd.xml\")"
param *.manager.port 9999
param *.manager.updateInterval 0.1s
param *.node[*].appl.beaconInterval 0.1s
param *.node[*].appl.dataOnSch false
param *.node[*].appl.headerLength "80 bit"
param *.node[*].appl.hops "${hops = 1, 2, 3, 4, 5}"
param *.node[*].appl.logVehPeriod ${logVehPeriod}
param *.node[*].appl.seedPar ${repetition}
param *.node[*].appl.sendBeacons true
param *.node[*].applType "\"Communication\""
param *.node[*].nic.mac1609_4.bitrate 6Mbps
param *.node[*].nic.mac1609_4.txPower 20mW
param *.node[*].nic.mac1609_4.useServiceChannel false
param *.node[*].nic.phy80211p.analogueModels "xmldoc(\"config.xml\")"
param *.node[*].nic.phy80211p.antenna "xmldoc(\"antenna.xml\", \"/root/Antenna[@id='monopole']\")"
param *.node[*].nic.phy80211p.decider "xmldoc(\"config.xml\")"
param *.node[*].nic.phy80211p.sensitivity -84.39dBm
param *.node[*].nic.phy80211p.thermalNoise -110dBm
param *.node[*].nic.phy80211p.usePropagationDelay true
param *.node[*].nic.phy80211p.useThermalNoise true
param *.node[*].veinsmobility.x 0
param *.node[*].veinsmobility.y 0
param *.node[*].veinsmobility.z 1.895
param *.node[*].veinsmobilityType.debug true
param *.outagesServer.appl.beaconInterval 0.1s
param *.outagesServer.appl.beaconPriority 3
param *.outagesServer.appl.dataOnSch false
param *.outagesServer.appl.dataPriority 2
param *.outagesServer.appl.headerLength "80 bit"
param *.outagesServer.appl.sendBeacons false
param *.outagesServer.applType "\"Outages\""
param *.outagesServer.mobility.x 5000.0
param *.outagesServer.mobility.y 5000.0
param *.outagesServer.mobility.z 3
param *.outagesServer.nic.mac1609_4.bitrate 6Mbps
param *.outagesServer.nic.mac1609_4.txPower 20mW
param *.outagesServer.nic.mac1609_4.useServiceChannel false
param *.outagesServer.nic.phy80211p.analogueModels "xmldoc(\"config.xml\")"
param *.outagesServer.nic.phy80211p.antenna "xmldoc(\"antenna.xml\", \"/root/Antenna[@id='monopole']\")"
param *.outagesServer.nic.phy80211p.decider "xmldoc(\"config.xml\")"
param *.outagesServer.nic.phy80211p.sensitivity -84.39dBm
param *.outagesServer.nic.phy80211p.thermalNoise -110dBm
param *.outagesServer.nic.phy80211p.usePropagationDelay true
param *.outagesServer.nic.phy80211p.useThermalNoise true
param *.playgroundSizeX 20000m
param *.playgroundSizeY 20000m
param *.playgroundSizeZ 50m

scalar . 	hops 	3
scalar . 	logVehPeriod 	10
scalar LocScenario.node[1].appl 	generatedWSMs 	0
scalar LocScenario.node[1].appl 	receivedWSMs 	0
scalar LocScenario.node[1].appl 	generatedBSMs 	2040
scalar LocScenario.node[1].appl 	receivedBSMs 	7920
scalar LocScenario.node[1].appl 	generatedWSAs 	0
scalar LocScenario.node[1].appl 	receivedWSAs 	0
scalar LocScenario.node[1].appl 	rmseSUMGPS 	575530.76010745
scalar LocScenario.node[1].appl 	rmseSUMCP 	526930.22887767
scalar LocScenario.node[1].appl 	delaySum 	0.88765815221353
scalar LocScenario.node[1].nic.phy80211p 	busyTime 	0.0040763921568625
scalar LocScenario.node[1].nic.mac1609_4 	ReceivedUnicastPackets 	0
scalar LocScenario.node[1].nic.mac1609_4 	ReceivedBroadcasts 	7920
scalar LocScenario.node[1].nic.mac1609_4 	SentPackets 	2040
scalar LocScenario.node[1].nic.mac1609_4 	SNIRLostPackets 	76
scalar LocScenario.node[1].nic.mac1609_4 	RXTXLostPackets 	0
scalar LocScenario.node[1].nic.mac1609_4 	TotalLostPackets 	76
scalar LocScenario.node[1].nic.mac1609_4 	DroppedPacketsInMac 	0
scalar LocScenario.node[1].nic.mac1609_4 	TooLittleTime 	0
scalar LocScenario.node[1].nic.mac1609_4 	TimesIntoBackoff 	3980
scalar LocScenario.node[1].nic.mac1609_4 	SlotsBackoff 	5982
scalar LocScenario.node[1].nic.mac1609_4 	NumInternalContention 	0
scalar LocScenario.node[1].nic.mac1609_4 	totalBusyTime 	1.04412
scalar LocScenario.node[1].veinsmobility 	startTime 	0.1
scalar LocScenario.node[1].veinsmobility 	totalTime 	203.9
scalar LocScenario.node[1].veinsmobility 	stopTime 	204.1
scalar LocScenario.node[1].veinsmobility 	minSpeed 	10.450043624104
scalar LocScenario.node[1].veinsmobility 	maxSpeed 	10.499976098782
scalar LocScenario.node[1].veinsmobility 	totalDistance 	2133.739525326
scalar LocScenario.node[1].veinsmobility 	totalCO2Emission 	351.8465199632
scalar LocScenario.node[3].appl 	generatedWSMs 	0
scalar LocScenario.node[3].appl 	receivedWSMs 	0
scalar LocScenario.node[3].appl 	generatedBSMs 	2040
scalar LocScenario.node[3].appl 	receivedBSMs 	10067
scalar LocScenario.node[3].appl 	generatedWSAs 	0
scalar LocScenario.node[3].appl 	receivedWSAs 	0
scalar LocScenario.node[3].appl 	rmseSUMGPS 	1002017.0147043
scalar LocScenario.node[3].appl 	rmseSUMCP 	529612.09675296
scalar LocScenario.node[3].appl 	delaySum 	1.4389189743666
scalar LocScenario.node[3].nic.phy80211p 	busyTime 	0.0051699215686274
scalar LocScenario.node[3].nic.mac1609_4 	ReceivedUnicastPackets 	0
scalar LocScenario.node[3].nic.mac1609_4 	ReceivedBroadcasts 	10067
scalar LocScenario.node[3].nic.mac1609_4 	SentPackets 	2040
scalar LocScenario.node[3].nic.mac1609_4 	SNIRLostPackets 	74
scalar LocScenario.node[3].nic.mac1609_4 	RXTXLostPackets 	0
scalar LocScenario.node[3].nic.mac1609_4 	TotalLostPackets 	74
scalar LocScenario.node[3].nic.mac1609_4 	DroppedPacketsInMac 	0
scalar LocScenario.node[3].nic.mac1609_4 	TooLittleTime 	0
scalar LocScenario.node[3].nic.mac1609_4 	TimesIntoBackoff 	2040
scalar LocScenario.node[3].nic.mac1609_4 	SlotsBackoff 	3163
scalar LocScenario.node[3].nic.mac1609_4 	NumInternalContention 	0
scalar LocScenario.node[3].nic.mac1609_4 	totalBusyTime 	1.267096
scalar LocScenario.node[3].veinsmobility 	startTime 	10.1
scalar LocScenario.node[3].veinsmobility 	totalTime 	203.9
scalar LocScenario.node[3].veinsmobility 	stopTime 	214.1
scalar LocScenario.node[3].veinsmobility 	minSpeed 	10.450003123027
scalar LocScenario.node[3].veinsmobility 	maxSpeed 	10.499912741117
scalar LocScenario.node[3].veinsmobility 	totalDistance 	2138.6403932204
scalar LocScenario.node[3].veinsmobility 	totalCO2Emission 	351.62581391594
scalar LocScenario.node[5].appl 	generatedWSMs 	0
scalar LocScenario.node[5].appl 	receivedWSMs 	0
scalar LocScenario.node[5].appl 	generatedBSMs 	2040
scalar LocScenario.node[5].appl 	receivedBSMs 	12034
scalar LocScenario.node[5].appl 	generatedWSAs 	0
scalar LocScenario.node[5].appl 	receivedWSAs 	0
scalar LocScenario.node[5].appl 	rmseSUMGPS 	1031580.9427265
scalar LocScenario.node[5].appl 	rmseSUMCP 	10306705.464833
scalar LocScenario.node[5].appl 	delaySum 	1.6258658213903
scalar LocScenario.node[5].nic.phy80211p 	busyTime 	0.0061747450980402
scalar LocScenario.node[5].nic.mac1609_4 	ReceivedUnicastPackets 	0
scalar LocScenario.node[5].nic.mac1609_4 	ReceivedBroadcasts 	12034
scalar LocScenario.node[5].nic.mac1609_4 	SentPackets 	2040
scalar LocScenario.node[5].nic.mac1609_4 	SNIRLostPackets 	78
scalar LocScenario.node[5].nic.mac1609_4 	RXTXLostPackets 	0
scalar LocScenario.node[5].nic.mac1609_4 	TotalLostPackets 	78
scalar LocScenario.node[5].nic.mac1609_4 	DroppedPacketsInMac 	0
scalar LocScenario.node[5].nic.mac1609_4 	TooLittleTime 	0
scalar LocScenario.node[5].nic.mac1609_4 	TimesIntoBackoff 	2040
scalar LocScenario.node[5].nic.mac1609_4 	SlotsBackoff 	3044
scalar LocScenario.node[5].nic.mac1609_4 	NumInternalContention 	0
scalar LocScenario.node[5].nic.mac1609_4 	totalBusyTime 	1.471976
scalar LocScenario.node[5].veinsmobility 	startTime 	20.1
scalar LocScenario.node[5].veinsmobility 	totalTime 	203.9
scalar LocScenario.node[5].veinsmobility 	stopTime 	224.1
scalar LocScenario.node[5].veinsmobility 	minSpeed 	10.450002778426
scalar LocScenario.node[5].veinsmobility 	maxSpeed 	10.499974188174
scalar LocScenario.node[5].veinsmobility 	totalDistance 	2133.7848626722
scalar LocScenario.node[5].veinsmobility 	totalCO2Emission 	352.54393603213
scalar LocScenario.node[0].appl 	generatedWSMs 	0
scalar LocScenario.node[0].appl 	receivedWSMs 	0
scalar LocScenario.node[0].appl 	generatedBSMs 	2281
scalar LocScenario.node[0].appl 	receivedBSMs 	8731
scalar LocScenario.node[0].appl 	generatedWSAs 	0
scalar LocScenario.node[0].appl 	receivedWSAs 	0
scalar LocScenario.node[0].appl 	rmseSUMGPS 	129718.40137649
scalar LocScenario.node[0].appl 	rmseSUMCP 	444064.92656581
scalar LocScenario.node[0].appl 	delaySum 	1.0142478843001
scalar LocScenario.node[0].nic.phy80211p 	busyTime 	0.0039808154318279
scalar LocScenario.node[0].nic.mac1609_4 	ReceivedUnicastPackets 	0
scalar LocScenario.node[0].nic.mac1609_4 	ReceivedBroadcasts 	8731
scalar LocScenario.node[0].nic.mac1609_4 	SentPackets 	2281
scalar LocScenario.node[0].nic.mac1609_4 	SNIRLostPackets 	0
scalar LocScenario.node[0].nic.mac1609_4 	RXTXLostPackets 	0
scalar LocScenario.node[0].nic.mac1609_4 	TotalLostPackets 	0
scalar LocScenario.node[0].nic.mac1609_4 	DroppedPacketsInMac 	0
scalar LocScenario.node[0].nic.mac1609_4 	TooLittleTime 	0
scalar LocScenario.node[0].nic.mac1609_4 	TimesIntoBackoff 	2281
scalar LocScenario.node[0].nic.mac1609_4 	SlotsBackoff 	3461
scalar LocScenario.node[0].nic.mac1609_4 	NumInternalContention 	0
scalar LocScenario.node[0].nic.mac1609_4 	totalBusyTime 	1.147529
scalar LocScenario.node[0].veinsmobility 	startTime 	0.1
scalar LocScenario.node[0].veinsmobility 	totalTime 	228
scalar LocScenario.node[0].veinsmobility 	stopTime 	228.2
scalar LocScenario.node[0].veinsmobility 	minSpeed 	10.450010689965
scalar LocScenario.node[0].veinsmobility 	maxSpeed 	10.499980245682
scalar LocScenario.node[0].veinsmobility 	totalDistance 	2394.6527449866
scalar LocScenario.node[0].veinsmobility 	totalCO2Emission 	393.39784479055
scalar LocScenario.node[7].appl 	generatedWSMs 	0
scalar LocScenario.node[7].appl 	receivedWSMs 	0
scalar LocScenario.node[7].appl 	generatedBSMs 	2040
scalar LocScenario.node[7].appl 	receivedBSMs 	12219
scalar LocScenario.node[7].appl 	generatedWSAs 	0
scalar LocScenario.node[7].appl 	receivedWSAs 	0
scalar LocScenario.node[7].appl 	rmseSUMGPS 	836319.00725755
scalar LocScenario.node[7].appl 	rmseSUMCP 	4124240.8285595
scalar LocScenario.node[7].appl 	delaySum 	1.3704714928116
scalar LocScenario.node[7].nic.phy80211p 	busyTime 	0.0062700784313736
scalar LocScenario.node[7].nic.mac1609_4 	ReceivedUnicastPackets 	0
scalar LocScenario.node[7].nic.mac1609_4 	ReceivedBroadcasts 	12219
scalar LocScenario.node[7].nic.mac1609_4 	SentPackets 	2040
scalar LocScenario.node[7].nic.mac1609_4 	SNIRLostPackets 	80
scalar LocScenario.node[7].nic.mac1609_4 	RXTXLostPackets 	0
scalar LocScenario.node[7].nic.mac1609_4 	TotalLostPackets 	80
scalar LocScenario.node[7].nic.mac1609_4 	DroppedPacketsInMac 	0
scalar LocScenario.node[7].nic.mac1609_4 	TooLittleTime 	0
scalar LocScenario.node[7].nic.mac1609_4 	TimesIntoBackoff 	2040
scalar LocScenario.node[7].nic.mac1609_4 	SlotsBackoff 	3056
scalar LocScenario.node[7].nic.mac1609_4 	NumInternalContention 	0
scalar LocScenario.node[7].nic.mac1609_4 	totalBusyTime 	1.49132
scalar LocScenario.node[7].veinsmobility 	startTime 	30.1
scalar LocScenario.node[7].veinsmobility 	totalTime 	203.9
scalar LocScenario.node[7].veinsmobility 	stopTime 	234.1
scalar LocScenario.node[7].veinsmobility 	minSpeed 	10.450005131529
scalar LocScenario.node[7].veinsmobility 	maxSpeed 	10.499956335977
scalar LocScenario.node[7].veinsmobility 	totalDistance 	2138.7065549346
scalar LocScenario.node[7].veinsmobility 	totalCO2Emission 	351.56805900185
scalar LocScenario.node[2].appl 	generatedWSMs 	0
scalar LocScenario.node[2].appl 	receivedWSMs 	0
scalar LocScenario.node[2].appl 	generatedBSMs 	2281
scalar LocScenario.node[2].appl 	receivedBSMs 	11136
scalar LocScenario.node[2].appl 	generatedWSAs 	0
scalar LocScenario.node[2].appl 	receivedWSAs 	0
scalar LocScenario.node[2].appl 	rmseSUMGPS 	786502.96535097
scalar LocScenario.node[2].appl 	rmseSUMCP 	336611.19859655
scalar LocScenario.node[2].appl 	delaySum 	1.2830039361203
scalar LocScenario.node[2].nic.phy80211p 	busyTime 	0.00507735203858
scalar LocScenario.node[2].nic.mac1609_4 	ReceivedUnicastPackets 	0
scalar LocScenario.node[2].nic.mac1609_4 	ReceivedBroadcasts 	11136
scalar LocScenario.node[2].nic.mac1609_4 	SentPackets 	2281
scalar LocScenario.node[2].nic.mac1609_4 	SNIRLostPackets 	0
scalar LocScenario.node[2].nic.mac1609_4 	RXTXLostPackets 	0
scalar LocScenario.node[2].nic.mac1609_4 	TotalLostPackets 	0
scalar LocScenario.node[2].nic.mac1609_4 	DroppedPacketsInMac 	0
scalar LocScenario.node[2].nic.mac1609_4 	TooLittleTime 	0
scalar LocScenario.node[2].nic.mac1609_4 	TimesIntoBackoff 	2281
scalar LocScenario.node[2].nic.mac1609_4 	SlotsBackoff 	3465
scalar LocScenario.node[2].nic.mac1609_4 	NumInternalContention 	0
scalar LocScenario.node[2].nic.mac1609_4 	totalBusyTime 	1.397649
scalar LocScenario.node[2].veinsmobility 	startTime 	10.1
scalar LocScenario.node[2].veinsmobility 	totalTime 	228
scalar LocScenario.node[2].veinsmobility 	stopTime 	238.2
scalar LocScenario.node[2].veinsmobility 	minSpeed 	10.450003201445
scalar LocScenario.node[2].veinsmobility 	maxSpeed 	10.499990390707
scalar LocScenario.node[2].veinsmobility 	totalDistance 	2388.8318886184
scalar LocScenario.node[2].veinsmobility 	totalCO2Emission 	393.95856420122
scalar LocScenario.node[9].appl 	generatedWSMs 	0
scalar LocScenario.node[9].appl 	receivedWSMs 	0
scalar LocScenario.node[9].appl 	generatedBSMs 	2040
scalar LocScenario.node[9].appl 	receivedBSMs 	12467
scalar LocScenario.node[9].appl 	generatedWSAs 	0
scalar LocScenario.node[9].appl 	receivedWSAs 	0
scalar LocScenario.node[9].appl 	rmseSUMGPS 	693250.76698857
scalar LocScenario.node[9].appl 	rmseSUMCP 	1818245.5849792
scalar LocScenario.node[9].appl 	delaySum 	1.4055562226441
scalar LocScenario.node[9].nic.phy80211p 	busyTime 	0.0063944705882365
scalar LocScenario.node[9].nic.mac1609_4 	ReceivedUnicastPackets 	0
scalar LocScenario.node[9].nic.mac1609_4 	ReceivedBroadcasts 	12467
scalar LocScenario.node[9].nic.mac1609_4 	SentPackets 	2040
scalar LocScenario.node[9].nic.mac1609_4 	SNIRLostPackets 	76
scalar LocScenario.node[9].nic.mac1609_4 	RXTXLostPackets 	0
scalar LocScenario.node[9].nic.mac1609_4 	TotalLostPackets 	76
scalar LocScenario.node[9].nic.mac1609_4 	DroppedPacketsInMac 	0
scalar LocScenario.node[9].nic.mac1609_4 	TooLittleTime 	0
scalar LocScenario.node[9].nic.mac1609_4 	TimesIntoBackoff 	2040
scalar LocScenario.node[9].nic.mac1609_4 	SlotsBackoff 	3005
scalar LocScenario.node[9].nic.mac1609_4 	NumInternalContention 	0
scalar LocScenario.node[9].nic.mac1609_4 	totalBusyTime 	1.516904
scalar LocScenario.node[9].veinsmobility 	startTime 	40.1
scalar LocScenario.node[9].veinsmobility 	totalTime 	203.9
scalar LocScenario.node[9].veinsmobility 	stopTime 	244.1
scalar LocScenario.node[9].veinsmobility 	minSpeed 	10.45000074096
scalar LocScenario.node[9].veinsmobility 	maxSpeed 	10.499990547507
scalar LocScenario.node[9].veinsmobility 	totalDistance 	2133.8815084052
scalar LocScenario.node[9].veinsmobility 	totalCO2Emission 	351.87755090728
scalar LocScenario.node[4].appl 	generatedWSMs 	0
scalar LocScenario.node[4].appl 	receivedWSMs 	0
scalar LocScenario.node[4].appl 	generatedBSMs 	2281
scalar LocScenario.node[4].appl 	receivedBSMs 	13367
scalar LocScenario.node[4].appl 	generatedWSAs 	0
scalar LocScenario.node[4].appl 	receivedWSAs 	0
scalar LocScenario.node[4].appl 	rmseSUMGPS 	126321.84809463
scalar LocScenario.node[4].appl 	rmseSUMCP 	833163.86884381
scalar LocScenario.node[4].appl 	delaySum 	1.5325836723209
scalar LocScenario.node[4].nic.phy80211p 	busyTime 	0.0060945550197297
scalar LocScenario.node[4].nic.mac1609_4 	ReceivedUnicastPackets 	0
scalar LocScenario.node[4].nic.mac1609_4 	ReceivedBroadcasts 	13367
scalar LocScenario.node[4].nic.mac1609_4 	SentPackets 	2281
scalar LocScenario.node[4].nic.mac1609_4 	SNIRLostPackets 	0
scalar LocScenario.node[4].nic.mac1609_4 	RXTXLostPackets 	0
scalar LocScenario.node[4].nic.mac1609_4 	TotalLostPackets 	0
scalar LocScenario.node[4].nic.mac1609_4 	DroppedPacketsInMac 	0
scalar LocScenario.node[4].nic.mac1609_4 	TooLittleTime 	0
scalar LocScenario.node[4].nic.mac1609_4 	TimesIntoBackoff 	2281
scalar LocScenario.node[4].nic.mac1609_4 	SlotsBackoff 	3386
scalar LocScenario.node[4].nic.mac1609_4 	NumInternalContention 	0
scalar LocScenario.node[4].nic.mac1609_4 	totalBusyTime 	1.629673
scalar LocScenario.node[4].veinsmobility 	startTime 	20.1
scalar LocScenario.node[4].veinsmobility 	totalTime 	228
scalar LocScenario.node[4].veinsmobility 	stopTime 	248.2
scalar LocScenario.node[4].veinsmobility 	minSpeed 	10.450030578929
scalar LocScenario.node[4].veinsmobility 	maxSpeed 	10.49999201562
scalar LocScenario.node[4].veinsmobility 	totalDistance 	2394.7034815934
scalar LocScenario.node[4].veinsmobility 	totalCO2Emission 	393.76101049244
scalar LocScenario.node[11].appl 	generatedWSMs 	0
scalar LocScenario.node[11].appl 	receivedWSMs 	0
scalar LocScenario.node[11].appl 	generatedBSMs 	2040
scalar LocScenario.node[11].appl 	receivedBSMs 	12188
scalar LocScenario.node[11].appl 	generatedWSAs 	0
scalar LocScenario.node[11].appl 	receivedWSAs 	0
scalar LocScenario.node[11].appl 	rmseSUMGPS 	713131.8747118
scalar LocScenario.node[11].appl 	rmseSUMCP 	1659734.905593
scalar LocScenario.node[11].appl 	delaySum 	1.3865494244321
scalar LocScenario.node[11].nic.phy80211p 	busyTime 	0.0064974509803935
scalar LocScenario.node[11].nic.mac1609_4 	ReceivedUnicastPackets 	0
scalar LocScenario.node[11].nic.mac1609_4 	ReceivedBroadcasts 	12188
scalar LocScenario.node[11].nic.mac1609_4 	SentPackets 	2040
scalar LocScenario.node[11].nic.mac1609_4 	SNIRLostPackets 	557
scalar LocScenario.node[11].nic.mac1609_4 	RXTXLostPackets 	0
scalar LocScenario.node[11].nic.mac1609_4 	TotalLostPackets 	557
scalar LocScenario.node[11].nic.mac1609_4 	DroppedPacketsInMac 	0
scalar LocScenario.node[11].nic.mac1609_4 	TooLittleTime 	0
scalar LocScenario.node[11].nic.mac1609_4 	TimesIntoBackoff 	2040
scalar LocScenario.node[11].nic.mac1609_4 	SlotsBackoff 	3002
scalar LocScenario.node[11].nic.mac1609_4 	NumInternalContention 	0
scalar LocScenario.node[11].nic.mac1609_4 	totalBusyTime 	1.517509633667
scalar LocScenario.node[11].veinsmobility 	startTime 	50.1
scalar LocScenario.node[11].veinsmobility 	totalTime 	203.9
scalar LocScenario.node[11].veinsmobility 	stopTime 	254.1
scalar LocScenario.node[11].veinsmobility 	minSpeed 	10.450020355673
scalar LocScenario.node[11].veinsmobility 	maxSpeed 	10.499913246394
scalar LocScenario.node[11].veinsmobility 	totalDistance 	2138.8105149118
scalar LocScenario.node[11].veinsmobility 	totalCO2Emission 	352.04247202108
scalar LocScenario.node[6].appl 	generatedWSMs 	0
scalar LocScenario.node[6].appl 	receivedWSMs 	0
scalar LocScenario.node[6].appl 	generatedBSMs 	2281
scalar LocScenario.node[6].appl 	receivedBSMs 	13588
scalar LocScenario.node[6].appl 	generatedWSAs 	0
scalar LocScenario.node[6].appl 	receivedWSAs 	0
scalar LocScenario.node[6].appl 	rmseSUMGPS 	22180.155720756
scalar LocScenario.node[6].appl 	rmseSUMCP 	1031914.0436439
scalar LocScenario.node[6].appl 	delaySum 	1.557291266519
scalar LocScenario.node[6].nic.phy80211p 	busyTime 	0.0061953178430529
scalar LocScenario.node[6].nic.mac1609_4 	ReceivedUnicastPackets 	0
scalar LocScenario.node[6].nic.mac1609_4 	ReceivedBroadcasts 	13588
scalar LocScenario.node[6].nic.mac1609_4 	SentPackets 	2281
scalar LocScenario.node[6].nic.mac1609_4 	SNIRLostPackets 	0
scalar LocScenario.node[6].nic.mac1609_4 	RXTXLostPackets 	0
scalar LocScenario.node[6].nic.mac1609_4 	TotalLostPackets 	0
scalar LocScenario.node[6].nic.mac1609_4 	DroppedPacketsInMac 	0
scalar LocScenario.node[6].nic.mac1609_4 	TooLittleTime 	0
scalar LocScenario.node[6].nic.mac1609_4 	TimesIntoBackoff 	2281
scalar LocScenario.node[6].nic.mac1609_4 	SlotsBackoff 	3398
scalar LocScenario.node[6].nic.mac1609_4 	NumInternalContention 	0
scalar LocScenario.node[6].nic.mac1609_4 	totalBusyTime 	1.652657
scalar LocScenario.node[6].veinsmobility 	startTime 	30.1
scalar LocScenario.node[6].veinsmobility 	totalTime 	228
scalar LocScenario.node[6].veinsmobility 	stopTime 	258.2
scalar LocScenario.node[6].veinsmobility 	minSpeed 	10.450028024637
scalar LocScenario.node[6].veinsmobility 	maxSpeed 	10.499969132862
scalar LocScenario.node[6].veinsmobility 	totalDistance 	2392.3344572376
scalar LocScenario.node[6].veinsmobility 	totalCO2Emission 	393.48382703196
scalar LocScenario.node[13].appl 	generatedWSMs 	0
scalar LocScenario.node[13].appl 	receivedWSMs 	0
scalar LocScenario.node[13].appl 	generatedBSMs 	2040
scalar LocScenario.node[13].appl 	receivedBSMs 	12718
scalar LocScenario.node[13].appl 	generatedWSAs 	0
scalar LocScenario.node[13].appl 	receivedWSAs 	0
scalar LocScenario.node[13].appl 	rmseSUMGPS 	716636.78620424
scalar LocScenario.node[13].appl 	rmseSUMCP 	1954980.8284411
scalar LocScenario.node[13].appl 	delaySum 	1.457356840962
scalar LocScenario.node[13].nic.phy80211p 	busyTime 	0.0066096078431387
scalar LocScenario.node[13].nic.mac1609_4 	ReceivedUnicastPackets 	0
scalar LocScenario.node[13].nic.mac1609_4 	ReceivedBroadcasts 	12718
scalar LocScenario.node[13].nic.mac1609_4 	SentPackets 	2040
scalar LocScenario.node[13].nic.mac1609_4 	SNIRLostPackets 	247
scalar LocScenario.node[13].nic.mac1609_4 	RXTXLostPackets 	0
scalar LocScenario.node[13].nic.mac1609_4 	TotalLostPackets 	247
scalar LocScenario.node[13].nic.mac1609_4 	DroppedPacketsInMac 	0
scalar LocScenario.node[13].nic.mac1609_4 	TooLittleTime 	0
scalar LocScenario.node[13].nic.mac1609_4 	TimesIntoBackoff 	2040
scalar LocScenario.node[13].nic.mac1609_4 	SlotsBackoff 	3086
scalar LocScenario.node[13].nic.mac1609_4 	NumInternalContention 	0
scalar LocScenario.node[13].nic.mac1609_4 	totalBusyTime 	1.550288
scalar LocScenario.node[13].veinsmobility 	startTime 	60.1
scalar LocScenario.node[13].veinsmobility 	totalTime 	203.9
scalar LocScenario.node[13].veinsmobility 	stopTime 	264.1
scalar LocScenario.node[13].veinsmobility 	minSpeed 	10.450008621637
scalar LocScenario.node[13].veinsmobility 	maxSpeed 	10.499981851492
scalar LocScenario.node[13].veinsmobility 	totalDistance 	2138.7775752861
scalar LocScenario.node[13].veinsmobility 	totalCO2Emission 	351.75877158707
scalar LocScenario.node[8].appl 	generatedWSMs 	0
scalar LocScenario.node[8].appl 	receivedWSMs 	0
scalar LocScenario.node[8].appl 	generatedBSMs 	2281
scalar LocScenario.node[8].appl 	receivedBSMs 	13805
scalar LocScenario.node[8].appl 	generatedWSAs 	0
scalar LocScenario.node[8].appl 	receivedWSAs 	0
scalar LocScenario.node[8].appl 	rmseSUMGPS 	716915.8307591
scalar LocScenario.node[8].appl 	rmseSUMCP 	868679.98874607
scalar LocScenario.node[8].appl 	delaySum 	2.5196862748883e+180
scalar LocScenario.node[8].nic.phy80211p 	busyTime 	0.0062969925471301
scalar LocScenario.node[8].nic.mac1609_4 	ReceivedUnicastPackets 	0
scalar LocScenario.node[8].nic.mac1609_4 	ReceivedBroadcasts 	13805
scalar LocScenario.node[8].nic.mac1609_4 	SentPackets 	2281
scalar LocScenario.node[8].nic.mac1609_4 	SNIRLostPackets 	6
scalar LocScenario.node[8].nic.mac1609_4 	RXTXLostPackets 	0
scalar LocScenario.node[8].nic.mac1609_4 	TotalLostPackets 	6
scalar LocScenario.node[8].nic.mac1609_4 	DroppedPacketsInMac 	0
scalar LocScenario.node[8].nic.mac1609_4 	TooLittleTime 	0
scalar LocScenario.node[8].nic.mac1609_4 	TimesIntoBackoff 	2281
scalar LocScenario.node[8].nic.mac1609_4 	SlotsBackoff 	3405
scalar LocScenario.node[8].nic.mac1609_4 	NumInternalContention 	0
scalar LocScenario.node[8].nic.mac1609_4 	totalBusyTime 	1.675849
scalar LocScenario.node[8].veinsmobility 	startTime 	40.1
scalar LocScenario.node[8].veinsmobility 	totalTime 	228
scalar LocScenario.node[8].veinsmobility 	stopTime 	268.2
scalar LocScenario.node[8].veinsmobility 	minSpeed 	10.450082242431
scalar LocScenario.node[8].veinsmobility 	maxSpeed 	10.499983604893
scalar LocScenario.node[8].veinsmobility 	totalDistance 	2388.8863474085
scalar LocScenario.node[8].veinsmobility 	totalCO2Emission 	393.68267251206
scalar LocScenario.node[15].appl 	generatedWSMs 	0
scalar LocScenario.node[15].appl 	receivedWSMs 	0
scalar LocScenario.node[15].appl 	generatedBSMs 	2040
scalar LocScenario.node[15].appl 	receivedBSMs 	13106
scalar LocScenario.node[15].appl 	generatedWSAs 	0
scalar LocScenario.node[15].appl 	receivedWSAs 	0
scalar LocScenario.node[15].appl 	rmseSUMGPS 	1195087.9415302
scalar LocScenario.node[15].appl 	rmseSUMCP 	989472.34188432
scalar LocScenario.node[15].appl 	delaySum 	1.5109616627465
scalar LocScenario.node[15].nic.phy80211p 	busyTime 	0.0067253333333349
scalar LocScenario.node[15].nic.mac1609_4 	ReceivedUnicastPackets 	0
scalar LocScenario.node[15].nic.mac1609_4 	ReceivedBroadcasts 	13106
scalar LocScenario.node[15].nic.mac1609_4 	SentPackets 	2040
scalar LocScenario.node[15].nic.mac1609_4 	SNIRLostPackets 	86
scalar LocScenario.node[15].nic.mac1609_4 	RXTXLostPackets 	0
scalar LocScenario.node[15].nic.mac1609_4 	TotalLostPackets 	86
scalar LocScenario.node[15].nic.mac1609_4 	DroppedPacketsInMac 	0
scalar LocScenario.node[15].nic.mac1609_4 	TooLittleTime 	0
scalar LocScenario.node[15].nic.mac1609_4 	TimesIntoBackoff 	2040
scalar LocScenario.node[15].nic.mac1609_4 	SlotsBackoff 	3053
scalar LocScenario.node[15].nic.mac1609_4 	NumInternalContention 	0
scalar LocScenario.node[15].nic.mac1609_4 	totalBusyTime 	1.584088
scalar LocScenario.node[15].veinsmobility 	startTime 	70.1
scalar LocScenario.node[15].veinsmobility 	totalTime 	203.9
scalar LocScenario.node[15].veinsmobility 	stopTime 	274.1
scalar LocScenario.node[15].veinsmobility 	minSpeed 	10.45002477942
scalar LocScenario.node[15].veinsmobility 	maxSpeed 	10.499995518534
scalar LocScenario.node[15].veinsmobility 	totalDistance 	2133.7353544656
scalar LocScenario.node[15].veinsmobility 	totalCO2Emission 	351.41438500414
scalar LocScenario.node[10].appl 	generatedWSMs 	0
scalar LocScenario.node[10].appl 	receivedWSMs 	0
scalar LocScenario.node[10].appl 	generatedBSMs 	2281
scalar LocScenario.node[10].appl 	receivedBSMs 	13996
scalar LocScenario.node[10].appl 	generatedWSAs 	0
scalar LocScenario.node[10].appl 	receivedWSAs 	0
scalar LocScenario.node[10].appl 	rmseSUMGPS 	47350.541882018
scalar LocScenario.node[10].appl 	rmseSUMCP 	764120.15509872
scalar LocScenario.node[10].appl 	delaySum 	4.2946076101356e+18
scalar LocScenario.node[10].nic.phy80211p 	busyTime 	0.0063972994300763
scalar LocScenario.node[10].nic.mac1609_4 	ReceivedUnicastPackets 	0
scalar LocScenario.node[10].nic.mac1609_4 	ReceivedBroadcasts 	13996
scalar LocScenario.node[10].nic.mac1609_4 	SentPackets 	2281
scalar LocScenario.node[10].nic.mac1609_4 	SNIRLostPackets 	35
scalar LocScenario.node[10].nic.mac1609_4 	RXTXLostPackets 	0
scalar LocScenario.node[10].nic.mac1609_4 	TotalLostPackets 	35
scalar LocScenario.node[10].nic.mac1609_4 	DroppedPacketsInMac 	0
scalar LocScenario.node[10].nic.mac1609_4 	TooLittleTime 	0
scalar LocScenario.node[10].nic.mac1609_4 	TimesIntoBackoff 	2281
scalar LocScenario.node[10].nic.mac1609_4 	SlotsBackoff 	3320
scalar LocScenario.node[10].nic.mac1609_4 	NumInternalContention 	0
scalar LocScenario.node[10].nic.mac1609_4 	totalBusyTime 	1.698729
scalar LocScenario.node[10].veinsmobility 	startTime 	50.1
scalar LocScenario.node[10].veinsmobility 	totalTime 	228
scalar LocScenario.node[10].veinsmobility 	stopTime 	278.2
scalar LocScenario.node[10].veinsmobility 	minSpeed 	10.450057841372
scalar LocScenario.node[10].veinsmobility 	maxSpeed 	10.499979524547
scalar LocScenario.node[10].veinsmobility 	totalDistance 	2394.8303221432
scalar LocScenario.node[10].veinsmobility 	totalCO2Emission 	393.29701992481
scalar LocScenario.node[17].appl 	generatedWSMs 	0
scalar LocScenario.node[17].appl 	receivedWSMs 	0
scalar LocScenario.node[17].appl 	generatedBSMs 	2040
scalar LocScenario.node[17].appl 	receivedBSMs 	13131
scalar LocScenario.node[17].appl 	generatedWSAs 	0
scalar LocScenario.node[17].appl 	receivedWSAs 	0
scalar LocScenario.node[17].appl 	rmseSUMGPS 	671371.26349655
scalar LocScenario.node[17].appl 	rmseSUMCP 	755364.48334381
scalar LocScenario.node[17].appl 	delaySum 	1.5031886592222
scalar LocScenario.node[17].nic.phy80211p 	busyTime 	0.0068359607843154
scalar LocScenario.node[17].nic.mac1609_4 	ReceivedUnicastPackets 	0
scalar LocScenario.node[17].nic.mac1609_4 	ReceivedBroadcasts 	13131
scalar LocScenario.node[17].nic.mac1609_4 	SentPackets 	2040
scalar LocScenario.node[17].nic.mac1609_4 	SNIRLostPackets 	278
scalar LocScenario.node[17].nic.mac1609_4 	RXTXLostPackets 	0
scalar LocScenario.node[17].nic.mac1609_4 	TotalLostPackets 	278
scalar LocScenario.node[17].nic.mac1609_4 	DroppedPacketsInMac 	0
scalar LocScenario.node[17].nic.mac1609_4 	TooLittleTime 	0
scalar LocScenario.node[17].nic.mac1609_4 	TimesIntoBackoff 	2040
scalar LocScenario.node[17].nic.mac1609_4 	SlotsBackoff 	3071
scalar LocScenario.node[17].nic.mac1609_4 	NumInternalContention 	0
scalar LocScenario.node[17].nic.mac1609_4 	totalBusyTime 	1.596152
scalar LocScenario.node[17].veinsmobility 	startTime 	80.1
scalar LocScenario.node[17].veinsmobility 	totalTime 	203.9
scalar LocScenario.node[17].veinsmobility 	stopTime 	284.1
scalar LocScenario.node[17].veinsmobility 	minSpeed 	10.450016236887
scalar LocScenario.node[17].veinsmobility 	maxSpeed 	10.49994932944
scalar LocScenario.node[17].veinsmobility 	totalDistance 	2138.6905319253
scalar LocScenario.node[17].veinsmobility 	totalCO2Emission 	352.28224288101
scalar LocScenario.node[12].appl 	generatedWSMs 	0
scalar LocScenario.node[12].appl 	receivedWSMs 	0
scalar LocScenario.node[12].appl 	generatedBSMs 	2281
scalar LocScenario.node[12].appl 	receivedBSMs 	14093
scalar LocScenario.node[12].appl 	generatedWSAs 	0
scalar LocScenario.node[12].appl 	receivedWSAs 	0
scalar LocScenario.node[12].appl 	rmseSUMGPS 	35651.485549828
scalar LocScenario.node[12].appl 	rmseSUMCP 	1013329.7779893
scalar LocScenario.node[12].appl 	delaySum 	1.6340189196775
scalar LocScenario.node[12].nic.phy80211p 	busyTime 	0.0064989741341536
scalar LocScenario.node[12].nic.mac1609_4 	ReceivedUnicastPackets 	0
scalar LocScenario.node[12].nic.mac1609_4 	ReceivedBroadcasts 	14093
scalar LocScenario.node[12].nic.mac1609_4 	SentPackets 	2281
scalar LocScenario.node[12].nic.mac1609_4 	SNIRLostPackets 	161
scalar LocScenario.node[12].nic.mac1609_4 	RXTXLostPackets 	0
scalar LocScenario.node[12].nic.mac1609_4 	TotalLostPackets 	161
scalar LocScenario.node[12].nic.mac1609_4 	DroppedPacketsInMac 	0
scalar LocScenario.node[12].nic.mac1609_4 	TooLittleTime 	0
scalar LocScenario.node[12].nic.mac1609_4 	TimesIntoBackoff 	2281
scalar LocScenario.node[12].nic.mac1609_4 	SlotsBackoff 	3452
scalar LocScenario.node[12].nic.mac1609_4 	NumInternalContention 	0
scalar LocScenario.node[12].nic.mac1609_4 	totalBusyTime 	1.711521
scalar LocScenario.node[12].veinsmobility 	startTime 	60.1
scalar LocScenario.node[12].veinsmobility 	totalTime 	228
scalar LocScenario.node[12].veinsmobility 	stopTime 	288.2
scalar LocScenario.node[12].veinsmobility 	minSpeed 	10.450018482737
scalar LocScenario.node[12].veinsmobility 	maxSpeed 	10.499998350302
scalar LocScenario.node[12].veinsmobility 	totalDistance 	2392.4450231839
scalar LocScenario.node[12].veinsmobility 	totalCO2Emission 	394.10081231903
scalar LocScenario.node[19].appl 	generatedWSMs 	0
scalar LocScenario.node[19].appl 	receivedWSMs 	0
scalar LocScenario.node[19].appl 	generatedBSMs 	2040
scalar LocScenario.node[19].appl 	receivedBSMs 	12816
scalar LocScenario.node[19].appl 	generatedWSAs 	0
scalar LocScenario.node[19].appl 	receivedWSAs 	0
scalar LocScenario.node[19].appl 	rmseSUMGPS 	1633251.2214456
scalar LocScenario.node[19].appl 	rmseSUMCP 	663493.11357413
scalar LocScenario.node[19].appl 	delaySum 	1.4878967907287
scalar LocScenario.node[19].nic.phy80211p 	busyTime 	0.0069537254901979
scalar LocScenario.node[19].nic.mac1609_4 	ReceivedUnicastPackets 	0
scalar LocScenario.node[19].nic.mac1609_4 	ReceivedBroadcasts 	12816
scalar LocScenario.node[19].nic.mac1609_4 	SentPackets 	2040
scalar LocScenario.node[19].nic.mac1609_4 	SNIRLostPackets 	824
scalar LocScenario.node[19].nic.mac1609_4 	RXTXLostPackets 	0
scalar LocScenario.node[19].nic.mac1609_4 	TotalLostPackets 	824
scalar LocScenario.node[19].nic.mac1609_4 	DroppedPacketsInMac 	0
scalar LocScenario.node[19].nic.mac1609_4 	TooLittleTime 	0
scalar LocScenario.node[19].nic.mac1609_4 	TimesIntoBackoff 	2040
scalar LocScenario.node[19].nic.mac1609_4 	SlotsBackoff 	3138
scalar LocScenario.node[19].nic.mac1609_4 	NumInternalContention 	0
scalar LocScenario.node[19].nic.mac1609_4 	totalBusyTime 	1.599576373243
scalar LocScenario.node[19].veinsmobility 	startTime 	90.1
scalar LocScenario.node[19].veinsmobility 	totalTime 	203.9
scalar LocScenario.node[19].veinsmobility 	stopTime 	294.1
scalar LocScenario.node[19].veinsmobility 	minSpeed 	10.450064948201
scalar LocScenario.node[19].veinsmobility 	maxSpeed 	10.499982414034
scalar LocScenario.node[19].veinsmobility 	totalDistance 	2138.7644837062
scalar LocScenario.node[19].veinsmobility 	totalCO2Emission 	352.12318514325
scalar LocScenario.node[14].appl 	generatedWSMs 	0
scalar LocScenario.node[14].appl 	receivedWSMs 	0
scalar LocScenario.node[14].appl 	generatedBSMs 	2281
scalar LocScenario.node[14].appl 	receivedBSMs 	14366
scalar LocScenario.node[14].appl 	generatedWSAs 	0
scalar LocScenario.node[14].appl 	receivedWSAs 	0
scalar LocScenario.node[14].appl 	rmseSUMGPS 	1088897.0061026
scalar LocScenario.node[14].appl 	rmseSUMCP 	854465.15402031
scalar LocScenario.node[14].appl 	delaySum 	3.4084129468764e+184
scalar LocScenario.node[14].nic.phy80211p 	busyTime 	0.0065956334940835
scalar LocScenario.node[14].nic.mac1609_4 	ReceivedUnicastPackets 	0
scalar LocScenario.node[14].nic.mac1609_4 	ReceivedBroadcasts 	14366
scalar LocScenario.node[14].nic.mac1609_4 	SentPackets 	2281
scalar LocScenario.node[14].nic.mac1609_4 	SNIRLostPackets 	100
scalar LocScenario.node[14].nic.mac1609_4 	RXTXLostPackets 	0
scalar LocScenario.node[14].nic.mac1609_4 	TotalLostPackets 	100
scalar LocScenario.node[14].nic.mac1609_4 	DroppedPacketsInMac 	0
scalar LocScenario.node[14].nic.mac1609_4 	TooLittleTime 	0
scalar LocScenario.node[14].nic.mac1609_4 	TimesIntoBackoff 	2281
scalar LocScenario.node[14].nic.mac1609_4 	SlotsBackoff 	3404
scalar LocScenario.node[14].nic.mac1609_4 	NumInternalContention 	0
scalar LocScenario.node[14].nic.mac1609_4 	totalBusyTime 	1.738769
scalar LocScenario.node[14].veinsmobility 	startTime 	70.1
scalar LocScenario.node[14].veinsmobility 	totalTime 	228
scalar LocScenario.node[14].veinsmobility 	stopTime 	298.2
scalar LocScenario.node[14].veinsmobility 	minSpeed 	10.450034307875
scalar LocScenario.node[14].veinsmobility 	maxSpeed 	10.499995798781
scalar LocScenario.node[14].veinsmobility 	totalDistance 	2388.781105926
scalar LocScenario.node[14].veinsmobility 	totalCO2Emission 	393.68411933218
scalar LocScenario.node[21].appl 	generatedWSMs 	0
scalar LocScenario.node[21].appl 	receivedWSMs 	0
scalar LocScenario.node[21].appl 	generatedBSMs 	2040
scalar LocScenario.node[21].appl 	receivedBSMs 	13675
scalar LocScenario.node[21].appl 	generatedWSAs 	0
scalar LocScenario.node[21].appl 	receivedWSAs 	0
scalar LocScenario.node[21].appl 	rmseSUMGPS 	881301.6566427
scalar LocScenario.node[21].appl 	rmseSUMCP 	688054.57319893
scalar LocScenario.node[21].appl 	delaySum 	1.5749443226074
scalar LocScenario.node[21].nic.phy80211p 	busyTime 	0.0070658823529431
scalar LocScenario.node[21].nic.mac1609_4 	ReceivedUnicastPackets 	0
scalar LocScenario.node[21].nic.mac1609_4 	ReceivedBroadcasts 	13675
scalar LocScenario.node[21].nic.mac1609_4 	SentPackets 	2040
scalar LocScenario.node[21].nic.mac1609_4 	SNIRLostPackets 	185
scalar LocScenario.node[21].nic.mac1609_4 	RXTXLostPackets 	0
scalar LocScenario.node[21].nic.mac1609_4 	TotalLostPackets 	185
scalar LocScenario.node[21].nic.mac1609_4 	DroppedPacketsInMac 	0
scalar LocScenario.node[21].nic.mac1609_4 	TooLittleTime 	0
scalar LocScenario.node[21].nic.mac1609_4 	TimesIntoBackoff 	2040
scalar LocScenario.node[21].nic.mac1609_4 	SlotsBackoff 	3108
scalar LocScenario.node[21].nic.mac1609_4 	NumInternalContention 	0
scalar LocScenario.node[21].nic.mac1609_4 	totalBusyTime 	1.648152
scalar LocScenario.node[21].veinsmobility 	startTime 	100.1
scalar LocScenario.node[21].veinsmobility 	totalTime 	203.9
scalar LocScenario.node[21].veinsmobility 	stopTime 	304.1
scalar LocScenario.node[21].veinsmobility 	minSpeed 	10.450018021651
scalar LocScenario.node[21].veinsmobility 	maxSpeed 	10.499989169347
scalar LocScenario.node[21].veinsmobility 	totalDistance 	2138.6452653673
scalar LocScenario.node[21].veinsmobility 	totalCO2Emission 	352.22983458293
scalar LocScenario.node[16].appl 	generatedWSMs 	0
scalar LocScenario.node[16].appl 	receivedWSMs 	0
scalar LocScenario.node[16].appl 	generatedBSMs 	2281
scalar LocScenario.node[16].appl 	receivedBSMs 	14667
scalar LocScenario.node[16].appl 	generatedWSAs 	0
scalar LocScenario.node[16].appl 	receivedWSAs 	0
scalar LocScenario.node[16].appl 	rmseSUMGPS 	58327.683567591
scalar LocScenario.node[16].appl 	rmseSUMCP 	783170.75354349
scalar LocScenario.node[16].appl 	delaySum 	1.6787280176897
scalar LocScenario.node[16].nic.phy80211p 	busyTime 	0.0066900131521283
scalar LocScenario.node[16].nic.mac1609_4 	ReceivedUnicastPackets 	0
scalar LocScenario.node[16].nic.mac1609_4 	ReceivedBroadcasts 	14667
scalar LocScenario.node[16].nic.mac1609_4 	SentPackets 	2281
scalar LocScenario.node[16].nic.mac1609_4 	SNIRLostPackets 	6
scalar LocScenario.node[16].nic.mac1609_4 	RXTXLostPackets 	0
scalar LocScenario.node[16].nic.mac1609_4 	TotalLostPackets 	6
scalar LocScenario.node[16].nic.mac1609_4 	DroppedPacketsInMac 	0
scalar LocScenario.node[16].nic.mac1609_4 	TooLittleTime 	0
scalar LocScenario.node[16].nic.mac1609_4 	TimesIntoBackoff 	2503
scalar LocScenario.node[16].nic.mac1609_4 	SlotsBackoff 	3738
scalar LocScenario.node[16].nic.mac1609_4 	NumInternalContention 	0
scalar LocScenario.node[16].nic.mac1609_4 	totalBusyTime 	1.765497
scalar LocScenario.node[16].veinsmobility 	startTime 	80.1
scalar LocScenario.node[16].veinsmobility 	totalTime 	228
scalar LocScenario.node[16].veinsmobility 	stopTime 	308.2
scalar LocScenario.node[16].veinsmobility 	minSpeed 	10.45002617751
scalar LocScenario.node[16].veinsmobility 	maxSpeed 	10.499982769869
scalar LocScenario.node[16].veinsmobility 	totalDistance 	2392.3531147539
scalar LocScenario.node[16].veinsmobility 	totalCO2Emission 	393.66484424562
scalar LocScenario.node[23].appl 	generatedWSMs 	0
scalar LocScenario.node[23].appl 	receivedWSMs 	0
scalar LocScenario.node[23].appl 	generatedBSMs 	2040
scalar LocScenario.node[23].appl 	receivedBSMs 	14011
scalar LocScenario.node[23].appl 	generatedWSAs 	0
scalar LocScenario.node[23].appl 	receivedWSAs 	0
scalar LocScenario.node[23].appl 	rmseSUMGPS 	953083.00038505
scalar LocScenario.node[23].appl 	rmseSUMCP 	660342.68834228
scalar LocScenario.node[23].appl 	delaySum 	1.5727086447887
scalar LocScenario.node[23].nic.phy80211p 	busyTime 	0.0071851764705902
scalar LocScenario.node[23].nic.mac1609_4 	ReceivedUnicastPackets 	0
scalar LocScenario.node[23].nic.mac1609_4 	ReceivedBroadcasts 	14011
scalar LocScenario.node[23].nic.mac1609_4 	SentPackets 	2040
scalar LocScenario.node[23].nic.mac1609_4 	SNIRLostPackets 	83
scalar LocScenario.node[23].nic.mac1609_4 	RXTXLostPackets 	0
scalar LocScenario.node[23].nic.mac1609_4 	TotalLostPackets 	83
scalar LocScenario.node[23].nic.mac1609_4 	DroppedPacketsInMac 	0
scalar LocScenario.node[23].nic.mac1609_4 	TooLittleTime 	0
scalar LocScenario.node[23].nic.mac1609_4 	TimesIntoBackoff 	2262
scalar LocScenario.node[23].nic.mac1609_4 	SlotsBackoff 	3352
scalar LocScenario.node[23].nic.mac1609_4 	NumInternalContention 	0
scalar LocScenario.node[23].nic.mac1609_4 	totalBusyTime 	1.677688
scalar LocScenario.node[23].veinsmobility 	startTime 	110.1
scalar LocScenario.node[23].veinsmobility 	totalTime 	203.9
scalar LocScenario.node[23].veinsmobility 	stopTime 	314.1
scalar LocScenario.node[23].veinsmobility 	minSpeed 	10.450040359457
scalar LocScenario.node[23].veinsmobility 	maxSpeed 	10.499995768617
scalar LocScenario.node[23].veinsmobility 	totalDistance 	2133.6753620061
scalar LocScenario.node[23].veinsmobility 	totalCO2Emission 	351.59087309465
scalar LocScenario.node[18].appl 	generatedWSMs 	0
scalar LocScenario.node[18].appl 	receivedWSMs 	0
scalar LocScenario.node[18].appl 	generatedBSMs 	2281
scalar LocScenario.node[18].appl 	receivedBSMs 	14748
scalar LocScenario.node[18].appl 	generatedWSAs 	0
scalar LocScenario.node[18].appl 	receivedWSAs 	0
scalar LocScenario.node[18].appl 	rmseSUMGPS 	39134.216223547
scalar LocScenario.node[18].appl 	rmseSUMCP 	848630.81934139
scalar LocScenario.node[18].appl 	delaySum 	1.7146743959207
scalar LocScenario.node[18].nic.phy80211p 	busyTime 	0.0067853046909272
scalar LocScenario.node[18].nic.mac1609_4 	ReceivedUnicastPackets 	0
scalar LocScenario.node[18].nic.mac1609_4 	ReceivedBroadcasts 	14748
scalar LocScenario.node[18].nic.mac1609_4 	SentPackets 	2281
scalar LocScenario.node[18].nic.mac1609_4 	SNIRLostPackets 	134
scalar LocScenario.node[18].nic.mac1609_4 	RXTXLostPackets 	0
scalar LocScenario.node[18].nic.mac1609_4 	TotalLostPackets 	134
scalar LocScenario.node[18].nic.mac1609_4 	DroppedPacketsInMac 	0
scalar LocScenario.node[18].nic.mac1609_4 	TooLittleTime 	0
scalar LocScenario.node[18].nic.mac1609_4 	TimesIntoBackoff 	2281
scalar LocScenario.node[18].nic.mac1609_4 	SlotsBackoff 	3415
scalar LocScenario.node[18].nic.mac1609_4 	NumInternalContention 	0
scalar LocScenario.node[18].nic.mac1609_4 	totalBusyTime 	1.782033
scalar LocScenario.node[18].veinsmobility 	startTime 	90.1
scalar LocScenario.node[18].veinsmobility 	totalTime 	228
scalar LocScenario.node[18].veinsmobility 	stopTime 	318.2
scalar LocScenario.node[18].veinsmobility 	minSpeed 	10.450002117781
scalar LocScenario.node[18].veinsmobility 	maxSpeed 	10.499997283728
scalar LocScenario.node[18].veinsmobility 	totalDistance 	2394.6560063778
scalar LocScenario.node[18].veinsmobility 	totalCO2Emission 	393.80195693244
scalar LocScenario.node[25].appl 	generatedWSMs 	0
scalar LocScenario.node[25].appl 	receivedWSMs 	0
scalar LocScenario.node[25].appl 	generatedBSMs 	2040
scalar LocScenario.node[25].appl 	receivedBSMs 	14135
scalar LocScenario.node[25].appl 	generatedWSAs 	0
scalar LocScenario.node[25].appl 	receivedWSAs 	0
scalar LocScenario.node[25].appl 	rmseSUMGPS 	604048.49796406
scalar LocScenario.node[25].appl 	rmseSUMCP 	681466.77512679
scalar LocScenario.node[25].appl 	delaySum 	1.6115723132867
scalar LocScenario.node[25].nic.phy80211p 	busyTime 	0.0072993725490217
scalar LocScenario.node[25].nic.mac1609_4 	ReceivedUnicastPackets 	0
scalar LocScenario.node[25].nic.mac1609_4 	ReceivedBroadcasts 	14135
scalar LocScenario.node[25].nic.mac1609_4 	SentPackets 	2040
scalar LocScenario.node[25].nic.mac1609_4 	SNIRLostPackets 	183
scalar LocScenario.node[25].nic.mac1609_4 	RXTXLostPackets 	0
scalar LocScenario.node[25].nic.mac1609_4 	TotalLostPackets 	183
scalar LocScenario.node[25].nic.mac1609_4 	DroppedPacketsInMac 	0
scalar LocScenario.node[25].nic.mac1609_4 	TooLittleTime 	0
scalar LocScenario.node[25].nic.mac1609_4 	TimesIntoBackoff 	2040
scalar LocScenario.node[25].nic.mac1609_4 	SlotsBackoff 	3090
scalar LocScenario.node[25].nic.mac1609_4 	NumInternalContention 	0
scalar LocScenario.node[25].nic.mac1609_4 	totalBusyTime 	1.695784
scalar LocScenario.node[25].veinsmobility 	startTime 	120.1
scalar LocScenario.node[25].veinsmobility 	totalTime 	203.9
scalar LocScenario.node[25].veinsmobility 	stopTime 	324.1
scalar LocScenario.node[25].veinsmobility 	minSpeed 	10.450035513542
scalar LocScenario.node[25].veinsmobility 	maxSpeed 	10.499937142676
scalar LocScenario.node[25].veinsmobility 	totalDistance 	2133.7749089517
scalar LocScenario.node[25].veinsmobility 	totalCO2Emission 	352.25629112589
scalar LocScenario.node[20].appl 	generatedWSMs 	0
scalar LocScenario.node[20].appl 	receivedWSMs 	0
scalar LocScenario.node[20].appl 	generatedBSMs 	2281
scalar LocScenario.node[20].appl 	receivedBSMs 	14655
scalar LocScenario.node[20].appl 	generatedWSAs 	0
scalar LocScenario.node[20].appl 	receivedWSAs 	0
scalar LocScenario.node[20].appl 	rmseSUMGPS 	49353.593066752
scalar LocScenario.node[20].appl 	rmseSUMCP 	819469.97824588
scalar LocScenario.node[20].appl 	delaySum 	1.7112649851535
scalar LocScenario.node[20].nic.phy80211p 	busyTime 	0.0068824199912342
scalar LocScenario.node[20].nic.mac1609_4 	ReceivedUnicastPackets 	0
scalar LocScenario.node[20].nic.mac1609_4 	ReceivedBroadcasts 	14655
scalar LocScenario.node[20].nic.mac1609_4 	SentPackets 	2281
scalar LocScenario.node[20].nic.mac1609_4 	SNIRLostPackets 	440
scalar LocScenario.node[20].nic.mac1609_4 	RXTXLostPackets 	0
scalar LocScenario.node[20].nic.mac1609_4 	TotalLostPackets 	440
scalar LocScenario.node[20].nic.mac1609_4 	DroppedPacketsInMac 	0
scalar LocScenario.node[20].nic.mac1609_4 	TooLittleTime 	0
scalar LocScenario.node[20].nic.mac1609_4 	TimesIntoBackoff 	2281
scalar LocScenario.node[20].nic.mac1609_4 	SlotsBackoff 	3491
scalar LocScenario.node[20].nic.mac1609_4 	NumInternalContention 	0
scalar LocScenario.node[20].nic.mac1609_4 	totalBusyTime 	1.788585
scalar LocScenario.node[20].veinsmobility 	startTime 	100.1
scalar LocScenario.node[20].veinsmobility 	totalTime 	228
scalar LocScenario.node[20].veinsmobility 	stopTime 	328.2
scalar LocScenario.node[20].veinsmobility 	minSpeed 	10.450018905802
scalar LocScenario.node[20].veinsmobility 	maxSpeed 	10.499921191996
scalar LocScenario.node[20].veinsmobility 	totalDistance 	2392.3685571564
scalar LocScenario.node[20].veinsmobility 	totalCO2Emission 	392.72543879574
scalar LocScenario.node[27].appl 	generatedWSMs 	0
scalar LocScenario.node[27].appl 	receivedWSMs 	0
scalar LocScenario.node[27].appl 	generatedBSMs 	2040
scalar LocScenario.node[27].appl 	receivedBSMs 	14228
scalar LocScenario.node[27].appl 	generatedWSAs 	0
scalar LocScenario.node[27].appl 	receivedWSAs 	0
scalar LocScenario.node[27].appl 	rmseSUMGPS 	782797.6965218
scalar LocScenario.node[27].appl 	rmseSUMCP 	633691.99004722
scalar LocScenario.node[27].appl 	delaySum 	1.6218900621311
scalar LocScenario.node[27].nic.phy80211p 	busyTime 	0.0074150980392179
scalar LocScenario.node[27].nic.mac1609_4 	ReceivedUnicastPackets 	0
scalar LocScenario.node[27].nic.mac1609_4 	ReceivedBroadcasts 	14228
scalar LocScenario.node[27].nic.mac1609_4 	SentPackets 	2040
scalar LocScenario.node[27].nic.mac1609_4 	SNIRLostPackets 	317
scalar LocScenario.node[27].nic.mac1609_4 	RXTXLostPackets 	0
scalar LocScenario.node[27].nic.mac1609_4 	TotalLostPackets 	317
scalar LocScenario.node[27].nic.mac1609_4 	DroppedPacketsInMac 	0
scalar LocScenario.node[27].nic.mac1609_4 	TooLittleTime 	0
scalar LocScenario.node[27].nic.mac1609_4 	TimesIntoBackoff 	2040
scalar LocScenario.node[27].nic.mac1609_4 	SlotsBackoff 	2978
scalar LocScenario.node[27].nic.mac1609_4 	NumInternalContention 	0
scalar LocScenario.node[27].nic.mac1609_4 	totalBusyTime 	1.714192
scalar LocScenario.node[27].veinsmobility 	startTime 	130.1
scalar LocScenario.node[27].veinsmobility 	totalTime 	203.9
scalar LocScenario.node[27].veinsmobility 	stopTime 	334.1
scalar LocScenario.node[27].veinsmobility 	minSpeed 	10.450050955906
scalar LocScenario.node[27].veinsmobility 	maxSpeed 	10.499994282576
scalar LocScenario.node[27].veinsmobility 	totalDistance 	2133.8184733742
scalar LocScenario.node[27].veinsmobility 	totalCO2Emission 	351.64475031975
scalar LocScenario.node[22].appl 	generatedWSMs 	0
scalar LocScenario.node[22].appl 	receivedWSMs 	0
scalar LocScenario.node[22].appl 	generatedBSMs 	2281
scalar LocScenario.node[22].appl 	receivedBSMs 	11582
scalar LocScenario.node[22].appl 	generatedWSAs 	0
scalar LocScenario.node[22].appl 	receivedWSAs 	0
scalar LocScenario.node[22].appl 	rmseSUMGPS 	81127.884433165
scalar LocScenario.node[22].appl 	rmseSUMCP 	670144.92272449
scalar LocScenario.node[22].appl 	delaySum 	1.3533107343069
scalar LocScenario.node[22].nic.phy80211p 	busyTime 	0.0069827268741804
scalar LocScenario.node[22].nic.mac1609_4 	ReceivedUnicastPackets 	0
scalar LocScenario.node[22].nic.mac1609_4 	ReceivedBroadcasts 	11582
scalar LocScenario.node[22].nic.mac1609_4 	SentPackets 	2281
scalar LocScenario.node[22].nic.mac1609_4 	SNIRLostPackets 	3733
scalar LocScenario.node[22].nic.mac1609_4 	RXTXLostPackets 	0
scalar LocScenario.node[22].nic.mac1609_4 	TotalLostPackets 	3733
scalar LocScenario.node[22].nic.mac1609_4 	DroppedPacketsInMac 	0
scalar LocScenario.node[22].nic.mac1609_4 	TooLittleTime 	0
scalar LocScenario.node[22].nic.mac1609_4 	TimesIntoBackoff 	2281
scalar LocScenario.node[22].nic.mac1609_4 	SlotsBackoff 	3407
scalar LocScenario.node[22].nic.mac1609_4 	NumInternalContention 	0
scalar LocScenario.node[22].nic.mac1609_4 	totalBusyTime 	1.646313
scalar LocScenario.node[22].veinsmobility 	startTime 	110.1
scalar LocScenario.node[22].veinsmobility 	totalTime 	228
scalar LocScenario.node[22].veinsmobility 	stopTime 	338.2
scalar LocScenario.node[22].veinsmobility 	minSpeed 	10.450031966041
scalar LocScenario.node[22].veinsmobility 	maxSpeed 	10.499986801494
scalar LocScenario.node[22].veinsmobility 	totalDistance 	2392.2565085595
scalar LocScenario.node[22].veinsmobility 	totalCO2Emission 	393.38318066839
scalar LocScenario.node[29].appl 	generatedWSMs 	0
scalar LocScenario.node[29].appl 	receivedWSMs 	0
scalar LocScenario.node[29].appl 	generatedBSMs 	2040
scalar LocScenario.node[29].appl 	receivedBSMs 	14624
scalar LocScenario.node[29].appl 	generatedWSAs 	0
scalar LocScenario.node[29].appl 	receivedWSAs 	0
scalar LocScenario.node[29].appl 	rmseSUMGPS 	736624.73393789
scalar LocScenario.node[29].appl 	rmseSUMCP 	650717.51235712
scalar LocScenario.node[29].appl 	delaySum 	1.6374400729597
scalar LocScenario.node[29].nic.phy80211p 	busyTime 	0.0075129803921592
scalar LocScenario.node[29].nic.mac1609_4 	ReceivedUnicastPackets 	0
scalar LocScenario.node[29].nic.mac1609_4 	ReceivedBroadcasts 	14624
scalar LocScenario.node[29].nic.mac1609_4 	SentPackets 	2040
scalar LocScenario.node[29].nic.mac1609_4 	SNIRLostPackets 	113
scalar LocScenario.node[29].nic.mac1609_4 	RXTXLostPackets 	0
scalar LocScenario.node[29].nic.mac1609_4 	TotalLostPackets 	113
scalar LocScenario.node[29].nic.mac1609_4 	DroppedPacketsInMac 	0
scalar LocScenario.node[29].nic.mac1609_4 	TooLittleTime 	0
scalar LocScenario.node[29].nic.mac1609_4 	TimesIntoBackoff 	2040
scalar LocScenario.node[29].nic.mac1609_4 	SlotsBackoff 	3072
scalar LocScenario.node[29].nic.mac1609_4 	NumInternalContention 	0
scalar LocScenario.node[29].nic.mac1609_4 	totalBusyTime 	1.74456
scalar LocScenario.node[29].veinsmobility 	startTime 	140.1
scalar LocScenario.node[29].veinsmobility 	totalTime 	203.9
scalar LocScenario.node[29].veinsmobility 	stopTime 	344.1
scalar LocScenario.node[29].veinsmobility 	minSpeed 	10.45005492809
scalar LocScenario.node[29].veinsmobility 	maxSpeed 	10.499983539805
scalar LocScenario.node[29].veinsmobility 	totalDistance 	2133.8536162503
scalar LocScenario.node[29].veinsmobility 	totalCO2Emission 	351.84801001858
scalar LocScenario.node[24].appl 	generatedWSMs 	0
scalar LocScenario.node[24].appl 	receivedWSMs 	0
scalar LocScenario.node[24].appl 	generatedBSMs 	2281
scalar LocScenario.node[24].appl 	receivedBSMs 	15531
scalar LocScenario.node[24].appl 	generatedWSAs 	0
scalar LocScenario.node[24].appl 	receivedWSAs 	0
scalar LocScenario.node[24].appl 	rmseSUMGPS 	25180.028917051
scalar LocScenario.node[24].appl 	rmseSUMCP 	703374.43457691
scalar LocScenario.node[24].appl 	delaySum 	1.8028453086429
scalar LocScenario.node[24].nic.phy80211p 	busyTime 	0.0070834896975036
scalar LocScenario.node[24].nic.mac1609_4 	ReceivedUnicastPackets 	0
scalar LocScenario.node[24].nic.mac1609_4 	ReceivedBroadcasts 	15531
scalar LocScenario.node[24].nic.mac1609_4 	SentPackets 	2281
scalar LocScenario.node[24].nic.mac1609_4 	SNIRLostPackets 	5
scalar LocScenario.node[24].nic.mac1609_4 	RXTXLostPackets 	0
scalar LocScenario.node[24].nic.mac1609_4 	TotalLostPackets 	5
scalar LocScenario.node[24].nic.mac1609_4 	DroppedPacketsInMac 	0
scalar LocScenario.node[24].nic.mac1609_4 	TooLittleTime 	0
scalar LocScenario.node[24].nic.mac1609_4 	TimesIntoBackoff 	2281
scalar LocScenario.node[24].nic.mac1609_4 	SlotsBackoff 	3458
scalar LocScenario.node[24].nic.mac1609_4 	NumInternalContention 	0
scalar LocScenario.node[24].nic.mac1609_4 	totalBusyTime 	1.855249
scalar LocScenario.node[24].veinsmobility 	startTime 	120.1
scalar LocScenario.node[24].veinsmobility 	totalTime 	228
scalar LocScenario.node[24].veinsmobility 	stopTime 	348.2
scalar LocScenario.node[24].veinsmobility 	minSpeed 	10.450008007919
scalar LocScenario.node[24].veinsmobility 	maxSpeed 	10.499916169955
scalar LocScenario.node[24].veinsmobility 	totalDistance 	2394.725735604
scalar LocScenario.node[24].veinsmobility 	totalCO2Emission 	393.50637265169
scalar LocScenario.node[31].appl 	generatedWSMs 	0
scalar LocScenario.node[31].appl 	receivedWSMs 	0
scalar LocScenario.node[31].appl 	generatedBSMs 	2040
scalar LocScenario.node[31].appl 	receivedBSMs 	14859
scalar LocScenario.node[31].appl 	generatedWSAs 	0
scalar LocScenario.node[31].appl 	receivedWSAs 	0
scalar LocScenario.node[31].appl 	rmseSUMGPS 	668752.42559026
scalar LocScenario.node[31].appl 	rmseSUMCP 	675409.34510894
scalar LocScenario.node[31].appl 	delaySum 	2.2550003317628
scalar LocScenario.node[31].nic.phy80211p 	busyTime 	0.0076205490196103
scalar LocScenario.node[31].nic.mac1609_4 	ReceivedUnicastPackets 	0
scalar LocScenario.node[31].nic.mac1609_4 	ReceivedBroadcasts 	14859
scalar LocScenario.node[31].nic.mac1609_4 	SentPackets 	2040
scalar LocScenario.node[31].nic.mac1609_4 	SNIRLostPackets 	89
scalar LocScenario.node[31].nic.mac1609_4 	RXTXLostPackets 	0
scalar LocScenario.node[31].nic.mac1609_4 	TotalLostPackets 	89
scalar LocScenario.node[31].nic.mac1609_4 	DroppedPacketsInMac 	0
scalar LocScenario.node[31].nic.mac1609_4 	TooLittleTime 	0
scalar LocScenario.node[31].nic.mac1609_4 	TimesIntoBackoff 	2040
scalar LocScenario.node[31].nic.mac1609_4 	SlotsBackoff 	3000
scalar LocScenario.node[31].nic.mac1609_4 	NumInternalContention 	0
scalar LocScenario.node[31].nic.mac1609_4 	totalBusyTime 	1.766504
scalar LocScenario.node[31].veinsmobility 	startTime 	150.1
scalar LocScenario.node[31].veinsmobility 	totalTime 	203.9
scalar LocScenario.node[31].veinsmobility 	stopTime 	354.1
scalar LocScenario.node[31].veinsmobility 	minSpeed 	10.450018683926
scalar LocScenario.node[31].veinsmobility 	maxSpeed 	10.499962616176
scalar LocScenario.node[31].veinsmobility 	totalDistance 	2133.902649159
scalar LocScenario.node[31].veinsmobility 	totalCO2Emission 	351.87276628206
scalar LocScenario.node[26].appl 	generatedWSMs 	0
scalar LocScenario.node[26].appl 	receivedWSMs 	0
scalar LocScenario.node[26].appl 	generatedBSMs 	2281
scalar LocScenario.node[26].appl 	receivedBSMs 	15673
scalar LocScenario.node[26].appl 	generatedWSAs 	0
scalar LocScenario.node[26].appl 	receivedWSAs 	0
scalar LocScenario.node[26].appl 	rmseSUMGPS 	867387.52202646
scalar LocScenario.node[26].appl 	rmseSUMCP 	682493.08068363
scalar LocScenario.node[26].appl 	delaySum 	1.8130046819776
scalar LocScenario.node[26].nic.phy80211p 	busyTime 	0.0071847084612038
scalar LocScenario.node[26].nic.mac1609_4 	ReceivedUnicastPackets 	0
scalar LocScenario.node[26].nic.mac1609_4 	ReceivedBroadcasts 	15673
scalar LocScenario.node[26].nic.mac1609_4 	SentPackets 	2281
scalar LocScenario.node[26].nic.mac1609_4 	SNIRLostPackets 	85
scalar LocScenario.node[26].nic.mac1609_4 	RXTXLostPackets 	0
scalar LocScenario.node[26].nic.mac1609_4 	TotalLostPackets 	85
scalar LocScenario.node[26].nic.mac1609_4 	DroppedPacketsInMac 	0
scalar LocScenario.node[26].nic.mac1609_4 	TooLittleTime 	0
scalar LocScenario.node[26].nic.mac1609_4 	TimesIntoBackoff 	2281
scalar LocScenario.node[26].nic.mac1609_4 	SlotsBackoff 	3449
scalar LocScenario.node[26].nic.mac1609_4 	NumInternalContention 	0
scalar LocScenario.node[26].nic.mac1609_4 	totalBusyTime 	1.873137
scalar LocScenario.node[26].veinsmobility 	startTime 	130.1
scalar LocScenario.node[26].veinsmobility 	totalTime 	228
scalar LocScenario.node[26].veinsmobility 	stopTime 	358.2
scalar LocScenario.node[26].veinsmobility 	minSpeed 	10.450009898026
scalar LocScenario.node[26].veinsmobility 	maxSpeed 	10.499989349814
scalar LocScenario.node[26].veinsmobility 	totalDistance 	2388.8105597047
scalar LocScenario.node[26].veinsmobility 	totalCO2Emission 	393.87969171992
scalar LocScenario.node[33].appl 	generatedWSMs 	0
scalar LocScenario.node[33].appl 	receivedWSMs 	0
scalar LocScenario.node[33].appl 	generatedBSMs 	2040
scalar LocScenario.node[33].appl 	receivedBSMs 	15030
scalar LocScenario.node[33].appl 	generatedWSAs 	0
scalar LocScenario.node[33].appl 	receivedWSAs 	0
scalar LocScenario.node[33].appl 	rmseSUMGPS 	804613.08527479
scalar LocScenario.node[33].appl 	rmseSUMCP 	642554.70920685
scalar LocScenario.node[33].appl 	delaySum 	1.6897111416877
scalar LocScenario.node[33].nic.phy80211p 	busyTime 	0.0077056862745123
scalar LocScenario.node[33].nic.mac1609_4 	ReceivedUnicastPackets 	0
scalar LocScenario.node[33].nic.mac1609_4 	ReceivedBroadcasts 	15030
scalar LocScenario.node[33].nic.mac1609_4 	SentPackets 	2040
scalar LocScenario.node[33].nic.mac1609_4 	SNIRLostPackets 	85
scalar LocScenario.node[33].nic.mac1609_4 	RXTXLostPackets 	0
scalar LocScenario.node[33].nic.mac1609_4 	TotalLostPackets 	85
scalar LocScenario.node[33].nic.mac1609_4 	DroppedPacketsInMac 	0
scalar LocScenario.node[33].nic.mac1609_4 	TooLittleTime 	0
scalar LocScenario.node[33].nic.mac1609_4 	TimesIntoBackoff 	2040
scalar LocScenario.node[33].nic.mac1609_4 	SlotsBackoff 	3042
scalar LocScenario.node[33].nic.mac1609_4 	NumInternalContention 	0
scalar LocScenario.node[33].nic.mac1609_4 	totalBusyTime 	1.783872
scalar LocScenario.node[33].veinsmobility 	startTime 	160.1
scalar LocScenario.node[33].veinsmobility 	totalTime 	203.9
scalar LocScenario.node[33].veinsmobility 	stopTime 	364.1
scalar LocScenario.node[33].veinsmobility 	minSpeed 	10.450001063128
scalar LocScenario.node[33].veinsmobility 	maxSpeed 	10.499993146572
scalar LocScenario.node[33].veinsmobility 	totalDistance 	2138.8033916822
scalar LocScenario.node[33].veinsmobility 	totalCO2Emission 	352.23967047886
scalar LocScenario.node[28].appl 	generatedWSMs 	0
scalar LocScenario.node[28].appl 	receivedWSMs 	0
scalar LocScenario.node[28].appl 	generatedBSMs 	2281
scalar LocScenario.node[28].appl 	receivedBSMs 	15697
scalar LocScenario.node[28].appl 	generatedWSAs 	0
scalar LocScenario.node[28].appl 	receivedWSAs 	0
scalar LocScenario.node[28].appl 	rmseSUMGPS 	860658.32136206
scalar LocScenario.node[28].appl 	rmseSUMCP 	614631.13439061
scalar LocScenario.node[28].appl 	delaySum 	1.8089600574207
scalar LocScenario.node[28].nic.phy80211p 	busyTime 	0.00728501534415
scalar LocScenario.node[28].nic.mac1609_4 	ReceivedUnicastPackets 	0
scalar LocScenario.node[28].nic.mac1609_4 	ReceivedBroadcasts 	15697
scalar LocScenario.node[28].nic.mac1609_4 	SentPackets 	2281
scalar LocScenario.node[28].nic.mac1609_4 	SNIRLostPackets 	281
scalar LocScenario.node[28].nic.mac1609_4 	RXTXLostPackets 	0
scalar LocScenario.node[28].nic.mac1609_4 	TotalLostPackets 	281
scalar LocScenario.node[28].nic.mac1609_4 	DroppedPacketsInMac 	0
scalar LocScenario.node[28].nic.mac1609_4 	TooLittleTime 	0
scalar LocScenario.node[28].nic.mac1609_4 	TimesIntoBackoff 	2281
scalar LocScenario.node[28].nic.mac1609_4 	SlotsBackoff 	3455
scalar LocScenario.node[28].nic.mac1609_4 	NumInternalContention 	0
scalar LocScenario.node[28].nic.mac1609_4 	totalBusyTime 	1.890918404928
scalar LocScenario.node[28].veinsmobility 	startTime 	140.1
scalar LocScenario.node[28].veinsmobility 	totalTime 	228
scalar LocScenario.node[28].veinsmobility 	stopTime 	368.2
scalar LocScenario.node[28].veinsmobility 	minSpeed 	10.450011612719
scalar LocScenario.node[28].veinsmobility 	maxSpeed 	10.499984991236
scalar LocScenario.node[28].veinsmobility 	totalDistance 	2388.7034106993
scalar LocScenario.node[28].veinsmobility 	totalCO2Emission 	393.56989060028
scalar LocScenario.node[35].appl 	generatedWSMs 	0
scalar LocScenario.node[35].appl 	receivedWSMs 	0
scalar LocScenario.node[35].appl 	generatedBSMs 	2040
scalar LocScenario.node[35].appl 	receivedBSMs 	15267
scalar LocScenario.node[35].appl 	generatedWSAs 	0
scalar LocScenario.node[35].appl 	receivedWSAs 	0
scalar LocScenario.node[35].appl 	rmseSUMGPS 	766607.64359508
scalar LocScenario.node[35].appl 	rmseSUMCP 	660964.77702655
scalar LocScenario.node[35].appl 	delaySum 	1.7092472289471
scalar LocScenario.node[35].nic.phy80211p 	busyTime 	0.0078265098039242
scalar LocScenario.node[35].nic.mac1609_4 	ReceivedUnicastPackets 	0
scalar LocScenario.node[35].nic.mac1609_4 	ReceivedBroadcasts 	15267
scalar LocScenario.node[35].nic.mac1609_4 	SentPackets 	2040
scalar LocScenario.node[35].nic.mac1609_4 	SNIRLostPackets 	85
scalar LocScenario.node[35].nic.mac1609_4 	RXTXLostPackets 	0
scalar LocScenario.node[35].nic.mac1609_4 	TotalLostPackets 	85
scalar LocScenario.node[35].nic.mac1609_4 	DroppedPacketsInMac 	0
scalar LocScenario.node[35].nic.mac1609_4 	TooLittleTime 	0
scalar LocScenario.node[35].nic.mac1609_4 	TimesIntoBackoff 	2040
scalar LocScenario.node[35].nic.mac1609_4 	SlotsBackoff 	3071
scalar LocScenario.node[35].nic.mac1609_4 	NumInternalContention 	0
scalar LocScenario.node[35].nic.mac1609_4 	totalBusyTime 	1.80852
scalar LocScenario.node[35].veinsmobility 	startTime 	170.1
scalar LocScenario.node[35].veinsmobility 	totalTime 	203.9
scalar LocScenario.node[35].veinsmobility 	stopTime 	374.1
scalar LocScenario.node[35].veinsmobility 	minSpeed 	10.450002224615
scalar LocScenario.node[35].veinsmobility 	maxSpeed 	10.499994644162
scalar LocScenario.node[35].veinsmobility 	totalDistance 	2133.8655703456
scalar LocScenario.node[35].veinsmobility 	totalCO2Emission 	351.83592302247
scalar LocScenario.node[30].appl 	generatedWSMs 	0
scalar LocScenario.node[30].appl 	receivedWSMs 	0
scalar LocScenario.node[30].appl 	generatedBSMs 	2281
scalar LocScenario.node[30].appl 	receivedBSMs 	16172
scalar LocScenario.node[30].appl 	generatedWSAs 	0
scalar LocScenario.node[30].appl 	receivedWSAs 	0
scalar LocScenario.node[30].appl 	rmseSUMGPS 	782501.13598927
scalar LocScenario.node[30].appl 	rmseSUMCP 	661362.42986125
scalar LocScenario.node[30].appl 	delaySum 	1.8550350214382
scalar LocScenario.node[30].nic.phy80211p 	busyTime 	0.0073876019289813
scalar LocScenario.node[30].nic.mac1609_4 	ReceivedUnicastPackets 	0
scalar LocScenario.node[30].nic.mac1609_4 	ReceivedBroadcasts 	16172
scalar LocScenario.node[30].nic.mac1609_4 	SentPackets 	2281
scalar LocScenario.node[30].nic.mac1609_4 	SNIRLostPackets 	31
scalar LocScenario.node[30].nic.mac1609_4 	RXTXLostPackets 	0
scalar LocScenario.node[30].nic.mac1609_4 	TotalLostPackets 	31
scalar LocScenario.node[30].nic.mac1609_4 	DroppedPacketsInMac 	0
scalar LocScenario.node[30].nic.mac1609_4 	TooLittleTime 	0
scalar LocScenario.node[30].nic.mac1609_4 	TimesIntoBackoff 	2281
scalar LocScenario.node[30].nic.mac1609_4 	SlotsBackoff 	3269
scalar LocScenario.node[30].nic.mac1609_4 	NumInternalContention 	0
scalar LocScenario.node[30].nic.mac1609_4 	totalBusyTime 	1.924617
scalar LocScenario.node[30].veinsmobility 	startTime 	150.1
scalar LocScenario.node[30].veinsmobility 	totalTime 	228
scalar LocScenario.node[30].veinsmobility 	stopTime 	378.2
scalar LocScenario.node[30].veinsmobility 	minSpeed 	10.450035644078
scalar LocScenario.node[30].veinsmobility 	maxSpeed 	10.499967617914
scalar LocScenario.node[30].veinsmobility 	totalDistance 	2388.8788894059
scalar LocScenario.node[30].veinsmobility 	totalCO2Emission 	393.42554247798
scalar LocScenario.node[37].appl 	generatedWSMs 	0
scalar LocScenario.node[37].appl 	receivedWSMs 	0
scalar LocScenario.node[37].appl 	generatedBSMs 	2040
scalar LocScenario.node[37].appl 	receivedBSMs 	15442
scalar LocScenario.node[37].appl 	generatedWSAs 	0
scalar LocScenario.node[37].appl 	receivedWSAs 	0
scalar LocScenario.node[37].appl 	rmseSUMGPS 	768058.99977998
scalar LocScenario.node[37].appl 	rmseSUMCP 	655913.74861849
scalar LocScenario.node[37].appl 	delaySum 	1.7360018001807
scalar LocScenario.node[37].nic.phy80211p 	busyTime 	0.0079157254901988
scalar LocScenario.node[37].nic.mac1609_4 	ReceivedUnicastPackets 	0
scalar LocScenario.node[37].nic.mac1609_4 	ReceivedBroadcasts 	15442
scalar LocScenario.node[37].nic.mac1609_4 	SentPackets 	2040
scalar LocScenario.node[37].nic.mac1609_4 	SNIRLostPackets 	85
scalar LocScenario.node[37].nic.mac1609_4 	RXTXLostPackets 	0
scalar LocScenario.node[37].nic.mac1609_4 	TotalLostPackets 	85
scalar LocScenario.node[37].nic.mac1609_4 	DroppedPacketsInMac 	0
scalar LocScenario.node[37].nic.mac1609_4 	TooLittleTime 	0
scalar LocScenario.node[37].nic.mac1609_4 	TimesIntoBackoff 	2040
scalar LocScenario.node[37].nic.mac1609_4 	SlotsBackoff 	3014
scalar LocScenario.node[37].nic.mac1609_4 	NumInternalContention 	0
scalar LocScenario.node[37].nic.mac1609_4 	totalBusyTime 	1.82672
scalar LocScenario.node[37].veinsmobility 	startTime 	180.1
scalar LocScenario.node[37].veinsmobility 	totalTime 	203.9
scalar LocScenario.node[37].veinsmobility 	stopTime 	384.1
scalar LocScenario.node[37].veinsmobility 	minSpeed 	10.450062293326
scalar LocScenario.node[37].veinsmobility 	maxSpeed 	10.499954048893
scalar LocScenario.node[37].veinsmobility 	totalDistance 	2133.9026894253
scalar LocScenario.node[37].veinsmobility 	totalCO2Emission 	352.34728160688
scalar LocScenario.node[32].appl 	generatedWSMs 	0
scalar LocScenario.node[32].appl 	receivedWSMs 	0
scalar LocScenario.node[32].appl 	generatedBSMs 	2281
scalar LocScenario.node[32].appl 	receivedBSMs 	16416
scalar LocScenario.node[32].appl 	generatedWSAs 	0
scalar LocScenario.node[32].appl 	receivedWSAs 	0
scalar LocScenario.node[32].appl 	rmseSUMGPS 	642115.66476669
scalar LocScenario.node[32].appl 	rmseSUMCP 	640764.56186411
scalar LocScenario.node[32].appl 	delaySum 	1.8811438178605
scalar LocScenario.node[32].nic.phy80211p 	busyTime 	0.0074865409907964
scalar LocScenario.node[32].nic.mac1609_4 	ReceivedUnicastPackets 	0
scalar LocScenario.node[32].nic.mac1609_4 	ReceivedBroadcasts 	16416
scalar LocScenario.node[32].nic.mac1609_4 	SentPackets 	2281
scalar LocScenario.node[32].nic.mac1609_4 	SNIRLostPackets 	4
scalar LocScenario.node[32].nic.mac1609_4 	RXTXLostPackets 	0
scalar LocScenario.node[32].nic.mac1609_4 	TotalLostPackets 	4
scalar LocScenario.node[32].nic.mac1609_4 	DroppedPacketsInMac 	0
scalar LocScenario.node[32].nic.mac1609_4 	TooLittleTime 	0
scalar LocScenario.node[32].nic.mac1609_4 	TimesIntoBackoff 	2281
scalar LocScenario.node[32].nic.mac1609_4 	SlotsBackoff 	3440
scalar LocScenario.node[32].nic.mac1609_4 	NumInternalContention 	0
scalar LocScenario.node[32].nic.mac1609_4 	totalBusyTime 	1.947185
scalar LocScenario.node[32].veinsmobility 	startTime 	160.1
scalar LocScenario.node[32].veinsmobility 	totalTime 	228
scalar LocScenario.node[32].veinsmobility 	stopTime 	388.2
scalar LocScenario.node[32].veinsmobility 	minSpeed 	10.450010252185
scalar LocScenario.node[32].veinsmobility 	maxSpeed 	10.499970092496
scalar LocScenario.node[32].veinsmobility 	totalDistance 	2394.6487492438
scalar LocScenario.node[32].veinsmobility 	totalCO2Emission 	393.53621296421
scalar LocScenario.node[39].appl 	generatedWSMs 	0
scalar LocScenario.node[39].appl 	receivedWSMs 	0
scalar LocScenario.node[39].appl 	generatedBSMs 	2040
scalar LocScenario.node[39].appl 	receivedBSMs 	15614
scalar LocScenario.node[39].appl 	generatedWSAs 	0
scalar LocScenario.node[39].appl 	receivedWSAs 	0
scalar LocScenario.node[39].appl 	rmseSUMGPS 	897481.47169506
scalar LocScenario.node[39].appl 	rmseSUMCP 	634359.32336861
scalar LocScenario.node[39].appl 	delaySum 	1.754987010124
scalar LocScenario.node[39].nic.phy80211p 	busyTime 	0.0080034117647087
scalar LocScenario.node[39].nic.mac1609_4 	ReceivedUnicastPackets 	0
scalar LocScenario.node[39].nic.mac1609_4 	ReceivedBroadcasts 	15614
scalar LocScenario.node[39].nic.mac1609_4 	SentPackets 	2040
scalar LocScenario.node[39].nic.mac1609_4 	SNIRLostPackets 	85
scalar LocScenario.node[39].nic.mac1609_4 	RXTXLostPackets 	0
scalar LocScenario.node[39].nic.mac1609_4 	TotalLostPackets 	85
scalar LocScenario.node[39].nic.mac1609_4 	DroppedPacketsInMac 	0
scalar LocScenario.node[39].nic.mac1609_4 	TooLittleTime 	0
scalar LocScenario.node[39].nic.mac1609_4 	TimesIntoBackoff 	2040
scalar LocScenario.node[39].nic.mac1609_4 	SlotsBackoff 	3144
scalar LocScenario.node[39].nic.mac1609_4 	NumInternalContention 	0
scalar LocScenario.node[39].nic.mac1609_4 	totalBusyTime 	1.844608
scalar LocScenario.node[39].veinsmobility 	startTime 	190.1
scalar LocScenario.node[39].veinsmobility 	totalTime 	203.9
scalar LocScenario.node[39].veinsmobility 	stopTime 	394.1
scalar LocScenario.node[39].veinsmobility 	minSpeed 	10.45002945743
scalar LocScenario.node[39].veinsmobility 	maxSpeed 	10.499954922695
scalar LocScenario.node[39].veinsmobility 	totalDistance 	2133.7811445335
scalar LocScenario.node[39].veinsmobility 	totalCO2Emission 	351.26554457542
scalar LocScenario.node[34].appl 	generatedWSMs 	0
scalar LocScenario.node[34].appl 	receivedWSMs 	0
scalar LocScenario.node[34].appl 	generatedBSMs 	2281
scalar LocScenario.node[34].appl 	receivedBSMs 	16635
scalar LocScenario.node[34].appl 	generatedWSAs 	0
scalar LocScenario.node[34].appl 	receivedWSAs 	0
scalar LocScenario.node[34].appl 	rmseSUMGPS 	448481.5861714
scalar LocScenario.node[34].appl 	rmseSUMCP 	656258.7402057
scalar LocScenario.node[34].appl 	delaySum 	1.9025647051626
scalar LocScenario.node[34].nic.phy80211p 	busyTime 	0.0075845681718574
scalar LocScenario.node[34].nic.mac1609_4 	ReceivedUnicastPackets 	0
scalar LocScenario.node[34].nic.mac1609_4 	ReceivedBroadcasts 	16635
scalar LocScenario.node[34].nic.mac1609_4 	SentPackets 	2281
scalar LocScenario.node[34].nic.mac1609_4 	SNIRLostPackets 	0
scalar LocScenario.node[34].nic.mac1609_4 	RXTXLostPackets 	0
scalar LocScenario.node[34].nic.mac1609_4 	TotalLostPackets 	0
scalar LocScenario.node[34].nic.mac1609_4 	DroppedPacketsInMac 	0
scalar LocScenario.node[34].nic.mac1609_4 	TooLittleTime 	0
scalar LocScenario.node[34].nic.mac1609_4 	TimesIntoBackoff 	2281
scalar LocScenario.node[34].nic.mac1609_4 	SlotsBackoff 	3291
scalar LocScenario.node[34].nic.mac1609_4 	NumInternalContention 	0
scalar LocScenario.node[34].nic.mac1609_4 	totalBusyTime 	1.969545
scalar LocScenario.node[34].veinsmobility 	startTime 	170.1
scalar LocScenario.node[34].veinsmobility 	totalTime 	228
scalar LocScenario.node[34].veinsmobility 	stopTime 	398.2
scalar LocScenario.node[34].veinsmobility 	minSpeed 	10.450105006329
scalar LocScenario.node[34].veinsmobility 	maxSpeed 	10.499918239738
scalar LocScenario.node[34].veinsmobility 	totalDistance 	2394.7402026715
scalar LocScenario.node[34].veinsmobility 	totalCO2Emission 	392.80573753008
scalar LocScenario.node[41].appl 	generatedWSMs 	0
scalar LocScenario.node[41].appl 	receivedWSMs 	0
scalar LocScenario.node[41].appl 	generatedBSMs 	2040
scalar LocScenario.node[41].appl 	receivedBSMs 	15765
scalar LocScenario.node[41].appl 	generatedWSAs 	0
scalar LocScenario.node[41].appl 	receivedWSAs 	0
scalar LocScenario.node[41].appl 	rmseSUMGPS 	1059278.3200316
scalar LocScenario.node[41].appl 	rmseSUMCP 	679708.71264885
scalar LocScenario.node[41].appl 	delaySum 	1.7655366653123
scalar LocScenario.node[41].nic.phy80211p 	busyTime 	0.0080803921568657
scalar LocScenario.node[41].nic.mac1609_4 	ReceivedUnicastPackets 	0
scalar LocScenario.node[41].nic.mac1609_4 	ReceivedBroadcasts 	15765
scalar LocScenario.node[41].nic.mac1609_4 	SentPackets 	2040
scalar LocScenario.node[41].nic.mac1609_4 	SNIRLostPackets 	85
scalar LocScenario.node[41].nic.mac1609_4 	RXTXLostPackets 	0
scalar LocScenario.node[41].nic.mac1609_4 	TotalLostPackets 	85
scalar LocScenario.node[41].nic.mac1609_4 	DroppedPacketsInMac 	0
scalar LocScenario.node[41].nic.mac1609_4 	TooLittleTime 	0
scalar LocScenario.node[41].nic.mac1609_4 	TimesIntoBackoff 	2040
scalar LocScenario.node[41].nic.mac1609_4 	SlotsBackoff 	3029
scalar LocScenario.node[41].nic.mac1609_4 	NumInternalContention 	0
scalar LocScenario.node[41].nic.mac1609_4 	totalBusyTime 	1.860312
scalar LocScenario.node[41].veinsmobility 	startTime 	200.1
scalar LocScenario.node[41].veinsmobility 	totalTime 	203.9
scalar LocScenario.node[41].veinsmobility 	stopTime 	404.1
scalar LocScenario.node[41].veinsmobility 	minSpeed 	10.450047384365
scalar LocScenario.node[41].veinsmobility 	maxSpeed 	10.499996253429
scalar LocScenario.node[41].veinsmobility 	totalDistance 	2133.8027765068
scalar LocScenario.node[41].veinsmobility 	totalCO2Emission 	352.16039618682
scalar LocScenario.node[36].appl 	generatedWSMs 	0
scalar LocScenario.node[36].appl 	receivedWSMs 	0
scalar LocScenario.node[36].appl 	generatedBSMs 	2281
scalar LocScenario.node[36].appl 	receivedBSMs 	16845
scalar LocScenario.node[36].appl 	generatedWSAs 	0
scalar LocScenario.node[36].appl 	receivedWSAs 	0
scalar LocScenario.node[36].appl 	rmseSUMGPS 	21745.44591306
scalar LocScenario.node[36].appl 	rmseSUMCP 	652444.17521025
scalar LocScenario.node[36].appl 	delaySum 	1.9195830334126
scalar LocScenario.node[36].nic.phy80211p 	busyTime 	0.0076803156510333
scalar LocScenario.node[36].nic.mac1609_4 	ReceivedUnicastPackets 	0
scalar LocScenario.node[36].nic.mac1609_4 	ReceivedBroadcasts 	16845
scalar LocScenario.node[36].nic.mac1609_4 	SentPackets 	2281
scalar LocScenario.node[36].nic.mac1609_4 	SNIRLostPackets 	0
scalar LocScenario.node[36].nic.mac1609_4 	RXTXLostPackets 	0
scalar LocScenario.node[36].nic.mac1609_4 	TotalLostPackets 	0
scalar LocScenario.node[36].nic.mac1609_4 	DroppedPacketsInMac 	0
scalar LocScenario.node[36].nic.mac1609_4 	TooLittleTime 	0
scalar LocScenario.node[36].nic.mac1609_4 	TimesIntoBackoff 	2281
scalar LocScenario.node[36].nic.mac1609_4 	SlotsBackoff 	3450
scalar LocScenario.node[36].nic.mac1609_4 	NumInternalContention 	0
scalar LocScenario.node[36].nic.mac1609_4 	totalBusyTime 	1.991385
scalar LocScenario.node[36].veinsmobility 	startTime 	180.1
scalar LocScenario.node[36].veinsmobility 	totalTime 	228
scalar LocScenario.node[36].veinsmobility 	stopTime 	408.2
scalar LocScenario.node[36].veinsmobility 	minSpeed 	10.450003284146
scalar LocScenario.node[36].veinsmobility 	maxSpeed 	10.499989948049
scalar LocScenario.node[36].veinsmobility 	totalDistance 	2394.6992140841
scalar LocScenario.node[36].veinsmobility 	totalCO2Emission 	393.27631421852
scalar LocScenario.node[43].appl 	generatedWSMs 	0
scalar LocScenario.node[43].appl 	receivedWSMs 	0
scalar LocScenario.node[43].appl 	generatedBSMs 	2040
scalar LocScenario.node[43].appl 	receivedBSMs 	15835
scalar LocScenario.node[43].appl 	generatedWSAs 	0
scalar LocScenario.node[43].appl 	receivedWSAs 	0
scalar LocScenario.node[43].appl 	rmseSUMGPS 	324490.16972016
scalar LocScenario.node[43].appl 	rmseSUMCP 	668910.15889703
scalar LocScenario.node[43].appl 	delaySum 	1.7744169894038
scalar LocScenario.node[43].nic.phy80211p 	busyTime 	0.0081155686274539
scalar LocScenario.node[43].nic.mac1609_4 	ReceivedUnicastPackets 	0
scalar LocScenario.node[43].nic.mac1609_4 	ReceivedBroadcasts 	15835
scalar LocScenario.node[43].nic.mac1609_4 	SentPackets 	2040
scalar LocScenario.node[43].nic.mac1609_4 	SNIRLostPackets 	84
scalar LocScenario.node[43].nic.mac1609_4 	RXTXLostPackets 	0
scalar LocScenario.node[43].nic.mac1609_4 	TotalLostPackets 	84
scalar LocScenario.node[43].nic.mac1609_4 	DroppedPacketsInMac 	0
scalar LocScenario.node[43].nic.mac1609_4 	TooLittleTime 	0
scalar LocScenario.node[43].nic.mac1609_4 	TimesIntoBackoff 	2040
scalar LocScenario.node[43].nic.mac1609_4 	SlotsBackoff 	3082
scalar LocScenario.node[43].nic.mac1609_4 	NumInternalContention 	0
scalar LocScenario.node[43].nic.mac1609_4 	totalBusyTime 	1.867384
scalar LocScenario.node[43].veinsmobility 	startTime 	210.1
scalar LocScenario.node[43].veinsmobility 	totalTime 	203.9
scalar LocScenario.node[43].veinsmobility 	stopTime 	414.1
scalar LocScenario.node[43].veinsmobility 	minSpeed 	10.450012921973
scalar LocScenario.node[43].veinsmobility 	maxSpeed 	10.499989842053
scalar LocScenario.node[43].veinsmobility 	totalDistance 	2138.7448003842
scalar LocScenario.node[43].veinsmobility 	totalCO2Emission 	352.05364807166
scalar LocScenario.node[38].appl 	generatedWSMs 	0
scalar LocScenario.node[38].appl 	receivedWSMs 	0
scalar LocScenario.node[38].appl 	generatedBSMs 	2281
scalar LocScenario.node[38].appl 	receivedBSMs 	16984
scalar LocScenario.node[38].appl 	generatedWSAs 	0
scalar LocScenario.node[38].appl 	receivedWSAs 	0
scalar LocScenario.node[38].appl 	rmseSUMGPS 	68374.885539833
scalar LocScenario.node[38].appl 	rmseSUMCP 	668106.66212747
scalar LocScenario.node[38].appl 	delaySum 	1.9294617699987
scalar LocScenario.node[38].nic.phy80211p 	busyTime 	0.0077436913634402
scalar LocScenario.node[38].nic.mac1609_4 	ReceivedUnicastPackets 	0
scalar LocScenario.node[38].nic.mac1609_4 	ReceivedBroadcasts 	16984
scalar LocScenario.node[38].nic.mac1609_4 	SentPackets 	2281
scalar LocScenario.node[38].nic.mac1609_4 	SNIRLostPackets 	0
scalar LocScenario.node[38].nic.mac1609_4 	RXTXLostPackets 	0
scalar LocScenario.node[38].nic.mac1609_4 	TotalLostPackets 	0
scalar LocScenario.node[38].nic.mac1609_4 	DroppedPacketsInMac 	0
scalar LocScenario.node[38].nic.mac1609_4 	TooLittleTime 	0
scalar LocScenario.node[38].nic.mac1609_4 	TimesIntoBackoff 	2281
scalar LocScenario.node[38].nic.mac1609_4 	SlotsBackoff 	3395
scalar LocScenario.node[38].nic.mac1609_4 	NumInternalContention 	0
scalar LocScenario.node[38].nic.mac1609_4 	totalBusyTime 	2.005841
scalar LocScenario.node[38].veinsmobility 	startTime 	190.1
scalar LocScenario.node[38].veinsmobility 	totalTime 	228
scalar LocScenario.node[38].veinsmobility 	stopTime 	418.2
scalar LocScenario.node[38].veinsmobility 	minSpeed 	10.450012898969
scalar LocScenario.node[38].veinsmobility 	maxSpeed 	10.499968473963
scalar LocScenario.node[38].veinsmobility 	totalDistance 	2392.419334553
scalar LocScenario.node[38].veinsmobility 	totalCO2Emission 	393.24358700368
scalar LocScenario.node[45].appl 	generatedWSMs 	0
scalar LocScenario.node[45].appl 	receivedWSMs 	0
scalar LocScenario.node[45].appl 	generatedBSMs 	2040
scalar LocScenario.node[45].appl 	receivedBSMs 	15885
scalar LocScenario.node[45].appl 	generatedWSAs 	0
scalar LocScenario.node[45].appl 	receivedWSAs 	0
scalar LocScenario.node[45].appl 	rmseSUMGPS 	652695.04652435
scalar LocScenario.node[45].appl 	rmseSUMCP 	648281.87193274
scalar LocScenario.node[45].appl 	delaySum 	1.7811254123072
scalar LocScenario.node[45].nic.phy80211p 	busyTime 	0.0081400392156892
scalar LocScenario.node[45].nic.mac1609_4 	ReceivedUnicastPackets 	0
scalar LocScenario.node[45].nic.mac1609_4 	ReceivedBroadcasts 	15885
scalar LocScenario.node[45].nic.mac1609_4 	SentPackets 	2040
scalar LocScenario.node[45].nic.mac1609_4 	SNIRLostPackets 	82
scalar LocScenario.node[45].nic.mac1609_4 	RXTXLostPackets 	0
scalar LocScenario.node[45].nic.mac1609_4 	TotalLostPackets 	82
scalar LocScenario.node[45].nic.mac1609_4 	DroppedPacketsInMac 	0
scalar LocScenario.node[45].nic.mac1609_4 	TooLittleTime 	0
[...]
scalar LocScenario.node[586].veinsmobility 	totalTime 	228
scalar LocScenario.node[586].veinsmobility 	stopTime 	3158.2
scalar LocScenario.node[586].veinsmobility 	minSpeed 	10.450002434279
scalar LocScenario.node[586].veinsmobility 	maxSpeed 	10.49999274828
scalar LocScenario.node[586].veinsmobility 	totalDistance 	2394.573693329
scalar LocScenario.node[586].veinsmobility 	totalCO2Emission 	393.99552707715
scalar LocScenario.node[593].appl 	generatedWSMs 	0
scalar LocScenario.node[593].appl 	receivedWSMs 	0
scalar LocScenario.node[593].appl 	generatedBSMs 	2040
scalar LocScenario.node[593].appl 	receivedBSMs 	12519
scalar LocScenario.node[593].appl 	generatedWSAs 	0
scalar LocScenario.node[593].appl 	receivedWSAs 	0
scalar LocScenario.node[593].appl 	rmseSUMGPS 	331346.82709774
scalar LocScenario.node[593].appl 	rmseSUMCP 	1087349.4086341
scalar LocScenario.node[593].appl 	delaySum 	1.402829386147
scalar LocScenario.node[593].nic.phy80211p 	busyTime 	0.0063822352941189
scalar LocScenario.node[593].nic.mac1609_4 	ReceivedUnicastPackets 	0
scalar LocScenario.node[593].nic.mac1609_4 	ReceivedBroadcasts 	12519
scalar LocScenario.node[593].nic.mac1609_4 	SentPackets 	2040
scalar LocScenario.node[593].nic.mac1609_4 	SNIRLostPackets 	0
scalar LocScenario.node[593].nic.mac1609_4 	RXTXLostPackets 	0
scalar LocScenario.node[593].nic.mac1609_4 	TotalLostPackets 	0
scalar LocScenario.node[593].nic.mac1609_4 	DroppedPacketsInMac 	0
scalar LocScenario.node[593].nic.mac1609_4 	TooLittleTime 	0
scalar LocScenario.node[593].nic.mac1609_4 	TimesIntoBackoff 	2040
scalar LocScenario.node[593].nic.mac1609_4 	SlotsBackoff 	3139
scalar LocScenario.node[593].nic.mac1609_4 	NumInternalContention 	0
scalar LocScenario.node[593].nic.mac1609_4 	totalBusyTime 	1.516176
scalar LocScenario.node[593].veinsmobility 	startTime 	2960.1
scalar LocScenario.node[593].veinsmobility 	totalTime 	203.9
scalar LocScenario.node[593].veinsmobility 	stopTime 	3164.1
scalar LocScenario.node[593].veinsmobility 	minSpeed 	10.45001556857
scalar LocScenario.node[593].veinsmobility 	maxSpeed 	10.499992182944
scalar LocScenario.node[593].veinsmobility 	totalDistance 	2138.7624759135
scalar LocScenario.node[593].veinsmobility 	totalCO2Emission 	352.04992392994
scalar LocScenario.node[588].appl 	generatedWSMs 	0
scalar LocScenario.node[588].appl 	receivedWSMs 	0
scalar LocScenario.node[588].appl 	generatedBSMs 	2281
scalar LocScenario.node[588].appl 	receivedBSMs 	13815
scalar LocScenario.node[588].appl 	generatedWSAs 	0
scalar LocScenario.node[588].appl 	receivedWSAs 	0
scalar LocScenario.node[588].appl 	rmseSUMGPS 	870407.68748837
scalar LocScenario.node[588].appl 	rmseSUMCP 	31995361.38501
scalar LocScenario.node[588].appl 	delaySum 	21.766197184094
scalar LocScenario.node[588].nic.phy80211p 	busyTime 	0.0062992722490153
scalar LocScenario.node[588].nic.mac1609_4 	ReceivedUnicastPackets 	0
scalar LocScenario.node[588].nic.mac1609_4 	ReceivedBroadcasts 	13815
scalar LocScenario.node[588].nic.mac1609_4 	SentPackets 	2281
scalar LocScenario.node[588].nic.mac1609_4 	SNIRLostPackets 	0
scalar LocScenario.node[588].nic.mac1609_4 	RXTXLostPackets 	0
scalar LocScenario.node[588].nic.mac1609_4 	TotalLostPackets 	0
scalar LocScenario.node[588].nic.mac1609_4 	DroppedPacketsInMac 	0
scalar LocScenario.node[588].nic.mac1609_4 	TooLittleTime 	0
scalar LocScenario.node[588].nic.mac1609_4 	TimesIntoBackoff 	2281
scalar LocScenario.node[588].nic.mac1609_4 	SlotsBackoff 	3395
scalar LocScenario.node[588].nic.mac1609_4 	NumInternalContention 	0
scalar LocScenario.node[588].nic.mac1609_4 	totalBusyTime 	1.676265
scalar LocScenario.node[588].veinsmobility 	startTime 	2940.1
scalar LocScenario.node[588].veinsmobility 	totalTime 	228
scalar LocScenario.node[588].veinsmobility 	stopTime 	3168.2
scalar LocScenario.node[588].veinsmobility 	minSpeed 	10.450004129321
scalar LocScenario.node[588].veinsmobility 	maxSpeed 	10.499997187371
scalar LocScenario.node[588].veinsmobility 	totalDistance 	2388.7741462059
scalar LocScenario.node[588].veinsmobility 	totalCO2Emission 	393.87609727984
scalar LocScenario.node[595].appl 	generatedWSMs 	0
scalar LocScenario.node[595].appl 	receivedWSMs 	0
scalar LocScenario.node[595].appl 	generatedBSMs 	2040
scalar LocScenario.node[595].appl 	receivedBSMs 	12301
scalar LocScenario.node[595].appl 	generatedWSAs 	0
scalar LocScenario.node[595].appl 	receivedWSAs 	0
scalar LocScenario.node[595].appl 	rmseSUMGPS 	654271.39724637
scalar LocScenario.node[595].appl 	rmseSUMCP 	1123138.7991472
scalar LocScenario.node[595].appl 	delaySum 	18.11181347596
scalar LocScenario.node[595].nic.phy80211p 	busyTime 	0.0062710980392168
scalar LocScenario.node[595].nic.mac1609_4 	ReceivedUnicastPackets 	0
scalar LocScenario.node[595].nic.mac1609_4 	ReceivedBroadcasts 	12301
scalar LocScenario.node[595].nic.mac1609_4 	SentPackets 	2040
scalar LocScenario.node[595].nic.mac1609_4 	SNIRLostPackets 	0
scalar LocScenario.node[595].nic.mac1609_4 	RXTXLostPackets 	0
scalar LocScenario.node[595].nic.mac1609_4 	TotalLostPackets 	0
scalar LocScenario.node[595].nic.mac1609_4 	DroppedPacketsInMac 	0
scalar LocScenario.node[595].nic.mac1609_4 	TooLittleTime 	0
scalar LocScenario.node[595].nic.mac1609_4 	TimesIntoBackoff 	2040
scalar LocScenario.node[595].nic.mac1609_4 	SlotsBackoff 	3092
scalar LocScenario.node[595].nic.mac1609_4 	NumInternalContention 	0
scalar LocScenario.node[595].nic.mac1609_4 	totalBusyTime 	1.493504
scalar LocScenario.node[595].veinsmobility 	startTime 	2970.1
scalar LocScenario.node[595].veinsmobility 	totalTime 	203.9
scalar LocScenario.node[595].veinsmobility 	stopTime 	3174.1
scalar LocScenario.node[595].veinsmobility 	minSpeed 	10.450003496173
scalar LocScenario.node[595].veinsmobility 	maxSpeed 	10.499996167212
scalar LocScenario.node[595].veinsmobility 	totalDistance 	2138.7383819208
scalar LocScenario.node[595].veinsmobility 	totalCO2Emission 	351.5702629749
scalar LocScenario.node[590].appl 	generatedWSMs 	0
scalar LocScenario.node[590].appl 	receivedWSMs 	0
scalar LocScenario.node[590].appl 	generatedBSMs 	2281
scalar LocScenario.node[590].appl 	receivedBSMs 	13593
scalar LocScenario.node[590].appl 	generatedWSAs 	0
scalar LocScenario.node[590].appl 	receivedWSAs 	0
scalar LocScenario.node[590].appl 	rmseSUMGPS 	1020206.090059
scalar LocScenario.node[590].appl 	rmseSUMCP 	39588843.401532
scalar LocScenario.node[590].appl 	delaySum 	10.87803313646
scalar LocScenario.node[590].nic.phy80211p 	busyTime 	0.006197597544938
scalar LocScenario.node[590].nic.mac1609_4 	ReceivedUnicastPackets 	0
scalar LocScenario.node[590].nic.mac1609_4 	ReceivedBroadcasts 	13593
scalar LocScenario.node[590].nic.mac1609_4 	SentPackets 	2281
scalar LocScenario.node[590].nic.mac1609_4 	SNIRLostPackets 	0
scalar LocScenario.node[590].nic.mac1609_4 	RXTXLostPackets 	0
scalar LocScenario.node[590].nic.mac1609_4 	TotalLostPackets 	0
scalar LocScenario.node[590].nic.mac1609_4 	DroppedPacketsInMac 	0
scalar LocScenario.node[590].nic.mac1609_4 	TooLittleTime 	0
scalar LocScenario.node[590].nic.mac1609_4 	TimesIntoBackoff 	2280
scalar LocScenario.node[590].nic.mac1609_4 	SlotsBackoff 	3427
scalar LocScenario.node[590].nic.mac1609_4 	NumInternalContention 	0
scalar LocScenario.node[590].nic.mac1609_4 	totalBusyTime 	1.653072
scalar LocScenario.node[590].veinsmobility 	startTime 	2950.1
scalar LocScenario.node[590].veinsmobility 	totalTime 	228
scalar LocScenario.node[590].veinsmobility 	stopTime 	3178.2
scalar LocScenario.node[590].veinsmobility 	minSpeed 	10.450010594132
scalar LocScenario.node[590].veinsmobility 	maxSpeed 	10.499952662608
scalar LocScenario.node[590].veinsmobility 	totalDistance 	2388.8406603359
scalar LocScenario.node[590].veinsmobility 	totalCO2Emission 	393.52055951179
scalar LocScenario.node[597].appl 	generatedWSMs 	0
scalar LocScenario.node[597].appl 	receivedWSMs 	0
scalar LocScenario.node[597].appl 	generatedBSMs 	2040
scalar LocScenario.node[597].appl 	receivedBSMs 	10363
scalar LocScenario.node[597].appl 	generatedWSAs 	0
scalar LocScenario.node[597].appl 	receivedWSAs 	0
scalar LocScenario.node[597].appl 	rmseSUMGPS 	701720.11092867
scalar LocScenario.node[597].appl 	rmseSUMCP 	2435800.9936948
scalar LocScenario.node[597].appl 	delaySum 	24.394638669338
scalar LocScenario.node[597].nic.phy80211p 	busyTime 	0.0052830980392158
scalar LocScenario.node[597].nic.mac1609_4 	ReceivedUnicastPackets 	0
scalar LocScenario.node[597].nic.mac1609_4 	ReceivedBroadcasts 	10363
scalar LocScenario.node[597].nic.mac1609_4 	SentPackets 	2040
scalar LocScenario.node[597].nic.mac1609_4 	SNIRLostPackets 	0
scalar LocScenario.node[597].nic.mac1609_4 	RXTXLostPackets 	0
scalar LocScenario.node[597].nic.mac1609_4 	TotalLostPackets 	0
scalar LocScenario.node[597].nic.mac1609_4 	DroppedPacketsInMac 	0
scalar LocScenario.node[597].nic.mac1609_4 	TooLittleTime 	0
scalar LocScenario.node[597].nic.mac1609_4 	TimesIntoBackoff 	2040
scalar LocScenario.node[597].nic.mac1609_4 	SlotsBackoff 	3068
scalar LocScenario.node[597].nic.mac1609_4 	NumInternalContention 	0
scalar LocScenario.node[597].nic.mac1609_4 	totalBusyTime 	1.291952
scalar LocScenario.node[597].veinsmobility 	startTime 	2980.1
scalar LocScenario.node[597].veinsmobility 	totalTime 	203.9
scalar LocScenario.node[597].veinsmobility 	stopTime 	3184.1
scalar LocScenario.node[597].veinsmobility 	minSpeed 	10.450026428699
scalar LocScenario.node[597].veinsmobility 	maxSpeed 	10.499984808348
scalar LocScenario.node[597].veinsmobility 	totalDistance 	2138.7683943312
scalar LocScenario.node[597].veinsmobility 	totalCO2Emission 	351.24482101103
scalar LocScenario.node[592].appl 	generatedWSMs 	0
scalar LocScenario.node[592].appl 	receivedWSMs 	0
scalar LocScenario.node[592].appl 	generatedBSMs 	2281
scalar LocScenario.node[592].appl 	receivedBSMs 	13372
scalar LocScenario.node[592].appl 	generatedWSAs 	0
scalar LocScenario.node[592].appl 	receivedWSAs 	0
scalar LocScenario.node[592].appl 	rmseSUMGPS 	56682.719191014
scalar LocScenario.node[592].appl 	rmseSUMCP 	50373922.536478
scalar LocScenario.node[592].appl 	delaySum 	1.497219659163
scalar LocScenario.node[592].nic.phy80211p 	busyTime 	0.0060968347216148
scalar LocScenario.node[592].nic.mac1609_4 	ReceivedUnicastPackets 	0
scalar LocScenario.node[592].nic.mac1609_4 	ReceivedBroadcasts 	13372
scalar LocScenario.node[592].nic.mac1609_4 	SentPackets 	2281
scalar LocScenario.node[592].nic.mac1609_4 	SNIRLostPackets 	0
scalar LocScenario.node[592].nic.mac1609_4 	RXTXLostPackets 	0
scalar LocScenario.node[592].nic.mac1609_4 	TotalLostPackets 	0
scalar LocScenario.node[592].nic.mac1609_4 	DroppedPacketsInMac 	0
scalar LocScenario.node[592].nic.mac1609_4 	TooLittleTime 	0
scalar LocScenario.node[592].nic.mac1609_4 	TimesIntoBackoff 	2281
scalar LocScenario.node[592].nic.mac1609_4 	SlotsBackoff 	3424
scalar LocScenario.node[592].nic.mac1609_4 	NumInternalContention 	0
scalar LocScenario.node[592].nic.mac1609_4 	totalBusyTime 	1.630193
scalar LocScenario.node[592].veinsmobility 	startTime 	2960.1
scalar LocScenario.node[592].veinsmobility 	totalTime 	228
scalar LocScenario.node[592].veinsmobility 	stopTime 	3188.2
scalar LocScenario.node[592].veinsmobility 	minSpeed 	10.450069310027
scalar LocScenario.node[592].veinsmobility 	maxSpeed 	10.499995032302
scalar LocScenario.node[592].veinsmobility 	totalDistance 	2394.7648728073
scalar LocScenario.node[592].veinsmobility 	totalCO2Emission 	392.91270555665
scalar LocScenario.node[599].appl 	generatedWSMs 	0
scalar LocScenario.node[599].appl 	receivedWSMs 	0
scalar LocScenario.node[599].appl 	generatedBSMs 	2040
scalar LocScenario.node[599].appl 	receivedBSMs 	8195
scalar LocScenario.node[599].appl 	generatedWSAs 	0
scalar LocScenario.node[599].appl 	receivedWSAs 	0
scalar LocScenario.node[599].appl 	rmseSUMGPS 	850470.88723931
scalar LocScenario.node[599].appl 	rmseSUMCP 	1509655.9612918
scalar LocScenario.node[599].appl 	delaySum 	21.593217525816
scalar LocScenario.node[599].nic.phy80211p 	busyTime 	0.0041778431372547
scalar LocScenario.node[599].nic.mac1609_4 	ReceivedUnicastPackets 	0
scalar LocScenario.node[599].nic.mac1609_4 	ReceivedBroadcasts 	8195
scalar LocScenario.node[599].nic.mac1609_4 	SentPackets 	2040
scalar LocScenario.node[599].nic.mac1609_4 	SNIRLostPackets 	0
scalar LocScenario.node[599].nic.mac1609_4 	RXTXLostPackets 	0
scalar LocScenario.node[599].nic.mac1609_4 	TotalLostPackets 	0
scalar LocScenario.node[599].nic.mac1609_4 	DroppedPacketsInMac 	0
scalar LocScenario.node[599].nic.mac1609_4 	TooLittleTime 	0
scalar LocScenario.node[599].nic.mac1609_4 	TimesIntoBackoff 	2040
scalar LocScenario.node[599].nic.mac1609_4 	SlotsBackoff 	3162
scalar LocScenario.node[599].nic.mac1609_4 	NumInternalContention 	0
scalar LocScenario.node[599].nic.mac1609_4 	totalBusyTime 	1.06648
scalar LocScenario.node[599].veinsmobility 	startTime 	2990.1
scalar LocScenario.node[599].veinsmobility 	totalTime 	203.9
scalar LocScenario.node[599].veinsmobility 	stopTime 	3194.1
scalar LocScenario.node[599].veinsmobility 	minSpeed 	10.450005700614
scalar LocScenario.node[599].veinsmobility 	maxSpeed 	10.499995517661
scalar LocScenario.node[599].veinsmobility 	totalDistance 	2133.86341238
scalar LocScenario.node[599].veinsmobility 	totalCO2Emission 	351.37562476492
scalar LocScenario.node[594].appl 	generatedWSMs 	0
scalar LocScenario.node[594].appl 	receivedWSMs 	0
scalar LocScenario.node[594].appl 	generatedBSMs 	2281
scalar LocScenario.node[594].appl 	receivedBSMs 	13150
scalar LocScenario.node[594].appl 	generatedWSAs 	0
scalar LocScenario.node[594].appl 	receivedWSAs 	0
scalar LocScenario.node[594].appl 	rmseSUMGPS 	109579.94043065
scalar LocScenario.node[594].appl 	rmseSUMCP 	62035784.794895
scalar LocScenario.node[594].appl 	delaySum 	1.4724851143146
scalar LocScenario.node[594].nic.phy80211p 	busyTime 	0.0059956159579146
scalar LocScenario.node[594].nic.mac1609_4 	ReceivedUnicastPackets 	0
scalar LocScenario.node[594].nic.mac1609_4 	ReceivedBroadcasts 	13150
scalar LocScenario.node[594].nic.mac1609_4 	SentPackets 	2281
scalar LocScenario.node[594].nic.mac1609_4 	SNIRLostPackets 	0
scalar LocScenario.node[594].nic.mac1609_4 	RXTXLostPackets 	0
scalar LocScenario.node[594].nic.mac1609_4 	TotalLostPackets 	0
scalar LocScenario.node[594].nic.mac1609_4 	DroppedPacketsInMac 	0
scalar LocScenario.node[594].nic.mac1609_4 	TooLittleTime 	0
scalar LocScenario.node[594].nic.mac1609_4 	TimesIntoBackoff 	2281
scalar LocScenario.node[594].nic.mac1609_4 	SlotsBackoff 	3413
scalar LocScenario.node[594].nic.mac1609_4 	NumInternalContention 	0
scalar LocScenario.node[594].nic.mac1609_4 	totalBusyTime 	1.607105
scalar LocScenario.node[594].veinsmobility 	startTime 	2970.1
scalar LocScenario.node[594].veinsmobility 	totalTime 	228
scalar LocScenario.node[594].veinsmobility 	stopTime 	3198.2
scalar LocScenario.node[594].veinsmobility 	minSpeed 	10.450003264355
scalar LocScenario.node[594].veinsmobility 	maxSpeed 	10.49999427374
scalar LocScenario.node[594].veinsmobility 	totalDistance 	2392.2041648365
scalar LocScenario.node[594].veinsmobility 	totalCO2Emission 	393.17975990568
scalar LocScenario.node[596].appl 	generatedWSMs 	0
scalar LocScenario.node[596].appl 	receivedWSMs 	0
scalar LocScenario.node[596].appl 	generatedBSMs 	2281
scalar LocScenario.node[596].appl 	receivedBSMs 	10919
scalar LocScenario.node[596].appl 	generatedWSAs 	0
scalar LocScenario.node[596].appl 	receivedWSAs 	0
scalar LocScenario.node[596].appl 	rmseSUMGPS 	579132.0537712
scalar LocScenario.node[596].appl 	rmseSUMCP 	3043177.2592876
scalar LocScenario.node[596].appl 	delaySum 	14.404235609582
scalar LocScenario.node[596].nic.phy80211p 	busyTime 	0.0049784129767649
scalar LocScenario.node[596].nic.mac1609_4 	ReceivedUnicastPackets 	0
scalar LocScenario.node[596].nic.mac1609_4 	ReceivedBroadcasts 	10919
scalar LocScenario.node[596].nic.mac1609_4 	SentPackets 	2281
scalar LocScenario.node[596].nic.mac1609_4 	SNIRLostPackets 	0
scalar LocScenario.node[596].nic.mac1609_4 	RXTXLostPackets 	0
scalar LocScenario.node[596].nic.mac1609_4 	TotalLostPackets 	0
scalar LocScenario.node[596].nic.mac1609_4 	DroppedPacketsInMac 	0
scalar LocScenario.node[596].nic.mac1609_4 	TooLittleTime 	0
scalar LocScenario.node[596].nic.mac1609_4 	TimesIntoBackoff 	2281
scalar LocScenario.node[596].nic.mac1609_4 	SlotsBackoff 	3441
scalar LocScenario.node[596].nic.mac1609_4 	NumInternalContention 	0
scalar LocScenario.node[596].nic.mac1609_4 	totalBusyTime 	1.375081
scalar LocScenario.node[596].veinsmobility 	startTime 	2980.1
scalar LocScenario.node[596].veinsmobility 	totalTime 	228
scalar LocScenario.node[596].veinsmobility 	stopTime 	3208.2
scalar LocScenario.node[596].veinsmobility 	minSpeed 	10.45001005145
scalar LocScenario.node[596].veinsmobility 	maxSpeed 	10.499937393144
scalar LocScenario.node[596].veinsmobility 	totalDistance 	2388.9495386493
scalar LocScenario.node[596].veinsmobility 	totalCO2Emission 	393.81181317815
scalar LocScenario.node[598].appl 	generatedWSMs 	0
scalar LocScenario.node[598].appl 	receivedWSMs 	0
scalar LocScenario.node[598].appl 	generatedBSMs 	2281
scalar LocScenario.node[598].appl 	receivedBSMs 	8514
scalar LocScenario.node[598].appl 	generatedWSAs 	0
scalar LocScenario.node[598].appl 	receivedWSAs 	0
scalar LocScenario.node[598].appl 	rmseSUMGPS 	809556.95270815
scalar LocScenario.node[598].appl 	rmseSUMCP 	1470354.5057278
scalar LocScenario.node[598].appl 	delaySum 	10.179221134385
scalar LocScenario.node[598].nic.phy80211p 	busyTime 	0.0038818763700129
scalar LocScenario.node[598].nic.mac1609_4 	ReceivedUnicastPackets 	0
scalar LocScenario.node[598].nic.mac1609_4 	ReceivedBroadcasts 	8514
scalar LocScenario.node[598].nic.mac1609_4 	SentPackets 	2281
scalar LocScenario.node[598].nic.mac1609_4 	SNIRLostPackets 	0
scalar LocScenario.node[598].nic.mac1609_4 	RXTXLostPackets 	0
scalar LocScenario.node[598].nic.mac1609_4 	TotalLostPackets 	0
scalar LocScenario.node[598].nic.mac1609_4 	DroppedPacketsInMac 	0
scalar LocScenario.node[598].nic.mac1609_4 	TooLittleTime 	0
scalar LocScenario.node[598].nic.mac1609_4 	TimesIntoBackoff 	2281
scalar LocScenario.node[598].nic.mac1609_4 	SlotsBackoff 	3449
scalar LocScenario.node[598].nic.mac1609_4 	NumInternalContention 	0
scalar LocScenario.node[598].nic.mac1609_4 	totalBusyTime 	1.124961
scalar LocScenario.node[598].veinsmobility 	startTime 	2990.1
scalar LocScenario.node[598].veinsmobility 	totalTime 	228
scalar LocScenario.node[598].veinsmobility 	stopTime 	3218.2
scalar LocScenario.node[598].veinsmobility 	minSpeed 	10.450041316485
scalar LocScenario.node[598].veinsmobility 	maxSpeed 	10.499918539275
scalar LocScenario.node[598].veinsmobility 	totalDistance 	2388.8071128756
scalar LocScenario.node[598].veinsmobility 	totalCO2Emission 	393.33126133212
scalar LocScenario.outagesServer.appl 	generatedWSMs 	0
scalar LocScenario.outagesServer.appl 	receivedWSMs 	0
scalar LocScenario.outagesServer.appl 	generatedBSMs 	0
scalar LocScenario.outagesServer.appl 	receivedBSMs 	0
scalar LocScenario.outagesServer.appl 	generatedWSAs 	0
scalar LocScenario.outagesServer.appl 	receivedWSAs 	0
scalar LocScenario.outagesServer.nic.phy80211p 	busyTime 	0
scalar LocScenario.outagesServer.nic.mac1609_4 	ReceivedUnicastPackets 	0
scalar LocScenario.outagesServer.nic.mac1609_4 	ReceivedBroadcasts 	0
scalar LocScenario.outagesServer.nic.mac1609_4 	SentPackets 	0
scalar LocScenario.outagesServer.nic.mac1609_4 	SNIRLostPackets 	0
scalar LocScenario.outagesServer.nic.mac1609_4 	RXTXLostPackets 	0
scalar LocScenario.outagesServer.nic.mac1609_4 	TotalLostPackets 	0
scalar LocScenario.outagesServer.nic.mac1609_4 	DroppedPacketsInMac 	0
scalar LocScenario.outagesServer.nic.mac1609_4 	TooLittleTime 	0
scalar LocScenario.outagesServer.nic.mac1609_4 	TimesIntoBackoff 	0
scalar LocScenario.outagesServer.nic.mac1609_4 	SlotsBackoff 	0
scalar LocScenario.outagesServer.nic.mac1609_4 	NumInternalContention 	0
scalar LocScenario.outagesServer.nic.mac1609_4 	totalBusyTime 	0
