version 2
run DMAT-90-20171113-12:49:11-4062
attr configname DMAT
attr datetime 20171113-12:49:11
attr experiment DMAT
attr hops 5
attr inifile omnetpp.ini
attr iterationvars "$logVehPeriod=10, $hops=5"
attr iterationvars2 "$logVehPeriod=10, $hops=5, $repetition=0"
attr logVehPeriod 10
attr measurement "$logVehPeriod=10, $hops=5"
attr network com.liborio.cooppos.LocScenario
attr processid 4062
attr repetition 0
attr replication #0
attr resultdir results
attr runnumber 90
attr seedset 0
param **.coreDebug false
param **.debug false
param *.annotations.draw false
param *.connectionManager.drawMaxIntfDist false
param *.connectionManager.maxInterfDist 600m
param *.connectionManager.sendDirect true
param *.manager.autoShutdown true
param *.manager.host "\"localhost\""
param *.manager.launchConfig "xmldoc(\"dmat-\"+string(${logVehPeriod = 15, 10, 5, 3, 1})+\".launchd.xml\")"
param *.manager.port 9999
param *.manager.updateInterval 0.1s
param *.node[*].appl.beaconInterval 0.1s
param *.node[*].appl.dataOnSch false
param *.node[*].appl.headerLength "80 bit"
param *.node[*].appl.hops "${hops = 1, 2, 3, 4, 5}"
param *.node[*].appl.logVehPeriod ${logVehPeriod}
param *.node[*].appl.seedPar ${repetition}
param *.node[*].appl.sendBeacons true
param *.node[*].applType "\"Communication\""
param *.node[*].nic.mac1609_4.bitrate 6Mbps
param *.node[*].nic.mac1609_4.txPower 20mW
param *.node[*].nic.mac1609_4.useServiceChannel false
param *.node[*].nic.phy80211p.analogueModels "xmldoc(\"config.xml\")"
param *.node[*].nic.phy80211p.antenna "xmldoc(\"antenna.xml\", \"/root/Antenna[@id='monopole']\")"
param *.node[*].nic.phy80211p.decider "xmldoc(\"config.xml\")"
param *.node[*].nic.phy80211p.sensitivity -84.39dBm
param *.node[*].nic.phy80211p.thermalNoise -110dBm
param *.node[*].nic.phy80211p.usePropagationDelay true
param *.node[*].nic.phy80211p.useThermalNoise true
param *.node[*].veinsmobility.x 0
param *.node[*].veinsmobility.y 0
param *.node[*].veinsmobility.z 1.895
param *.node[*].veinsmobilityType.debug true
param *.outagesServer.appl.beaconInterval 0.1s
param *.outagesServer.appl.beaconPriority 3
param *.outagesServer.appl.dataOnSch false
param *.outagesServer.appl.dataPriority 2
param *.outagesServer.appl.headerLength "80 bit"
param *.outagesServer.appl.sendBeacons false
param *.outagesServer.applType "\"Outages\""
param *.outagesServer.mobility.x 5000.0
param *.outagesServer.mobility.y 5000.0
param *.outagesServer.mobility.z 3
param *.outagesServer.nic.mac1609_4.bitrate 6Mbps
param *.outagesServer.nic.mac1609_4.txPower 20mW
param *.outagesServer.nic.mac1609_4.useServiceChannel false
param *.outagesServer.nic.phy80211p.analogueModels "xmldoc(\"config.xml\")"
param *.outagesServer.nic.phy80211p.antenna "xmldoc(\"antenna.xml\", \"/root/Antenna[@id='monopole']\")"
param *.outagesServer.nic.phy80211p.decider "xmldoc(\"config.xml\")"
param *.outagesServer.nic.phy80211p.sensitivity -84.39dBm
param *.outagesServer.nic.phy80211p.thermalNoise -110dBm
param *.outagesServer.nic.phy80211p.usePropagationDelay true
param *.outagesServer.nic.phy80211p.useThermalNoise true
param *.playgroundSizeX 20000m
param *.playgroundSizeY 20000m
param *.playgroundSizeZ 50m

scalar . 	hops 	5
scalar . 	logVehPeriod 	10
scalar LocScenario.node[1].appl 	generatedWSMs 	0
scalar LocScenario.node[1].appl 	receivedWSMs 	0
scalar LocScenario.node[1].appl 	generatedBSMs 	2040
scalar LocScenario.node[1].appl 	receivedBSMs 	7997
scalar LocScenario.node[1].appl 	generatedWSAs 	0
scalar LocScenario.node[1].appl 	receivedWSAs 	0
scalar LocScenario.node[1].appl 	rmseSUMGPS 	575494.11075524
scalar LocScenario.node[1].appl 	rmseSUMCP 	564425.21128108
scalar LocScenario.node[1].appl 	delaySum 	0.8958391936769
scalar LocScenario.node[1].nic.phy80211p 	busyTime 	0.0040769019607841
scalar LocScenario.node[1].nic.mac1609_4 	ReceivedUnicastPackets 	0
scalar LocScenario.node[1].nic.mac1609_4 	ReceivedBroadcasts 	7997
scalar LocScenario.node[1].nic.mac1609_4 	SentPackets 	2040
scalar LocScenario.node[1].nic.mac1609_4 	SNIRLostPackets 	0
scalar LocScenario.node[1].nic.mac1609_4 	RXTXLostPackets 	0
scalar LocScenario.node[1].nic.mac1609_4 	TotalLostPackets 	0
scalar LocScenario.node[1].nic.mac1609_4 	DroppedPacketsInMac 	0
scalar LocScenario.node[1].nic.mac1609_4 	TooLittleTime 	0
scalar LocScenario.node[1].nic.mac1609_4 	TimesIntoBackoff 	3980
scalar LocScenario.node[1].nic.mac1609_4 	SlotsBackoff 	5967
scalar LocScenario.node[1].nic.mac1609_4 	NumInternalContention 	0
scalar LocScenario.node[1].nic.mac1609_4 	totalBusyTime 	1.045888
scalar LocScenario.node[1].veinsmobility 	startTime 	0.1
scalar LocScenario.node[1].veinsmobility 	totalTime 	203.9
scalar LocScenario.node[1].veinsmobility 	stopTime 	204.1
scalar LocScenario.node[1].veinsmobility 	minSpeed 	10.450012358057
scalar LocScenario.node[1].veinsmobility 	maxSpeed 	10.499974606535
scalar LocScenario.node[1].veinsmobility 	totalDistance 	2133.8776562094
scalar LocScenario.node[1].veinsmobility 	totalCO2Emission 	351.38620115795
scalar LocScenario.node[3].appl 	generatedWSMs 	0
scalar LocScenario.node[3].appl 	receivedWSMs 	0
scalar LocScenario.node[3].appl 	generatedBSMs 	2040
scalar LocScenario.node[3].appl 	receivedBSMs 	10158
scalar LocScenario.node[3].appl 	generatedWSAs 	0
scalar LocScenario.node[3].appl 	receivedWSAs 	0
scalar LocScenario.node[3].appl 	rmseSUMGPS 	992867.05075995
scalar LocScenario.node[3].appl 	rmseSUMCP 	521189.1504228
scalar LocScenario.node[3].appl 	delaySum 	1.4497027840236
scalar LocScenario.node[3].nic.phy80211p 	busyTime 	0.0051785882352941
scalar LocScenario.node[3].nic.mac1609_4 	ReceivedUnicastPackets 	0
scalar LocScenario.node[3].nic.mac1609_4 	ReceivedBroadcasts 	10158
scalar LocScenario.node[3].nic.mac1609_4 	SentPackets 	2040
scalar LocScenario.node[3].nic.mac1609_4 	SNIRLostPackets 	0
scalar LocScenario.node[3].nic.mac1609_4 	RXTXLostPackets 	0
scalar LocScenario.node[3].nic.mac1609_4 	TotalLostPackets 	0
scalar LocScenario.node[3].nic.mac1609_4 	DroppedPacketsInMac 	0
scalar LocScenario.node[3].nic.mac1609_4 	TooLittleTime 	0
scalar LocScenario.node[3].nic.mac1609_4 	TimesIntoBackoff 	2040
scalar LocScenario.node[3].nic.mac1609_4 	SlotsBackoff 	3094
scalar LocScenario.node[3].nic.mac1609_4 	NumInternalContention 	0
scalar LocScenario.node[3].nic.mac1609_4 	totalBusyTime 	1.270632
scalar LocScenario.node[3].veinsmobility 	startTime 	10.1
scalar LocScenario.node[3].veinsmobility 	totalTime 	203.9
scalar LocScenario.node[3].veinsmobility 	stopTime 	214.1
scalar LocScenario.node[3].veinsmobility 	minSpeed 	10.450055381155
scalar LocScenario.node[3].veinsmobility 	maxSpeed 	10.499995057995
scalar LocScenario.node[3].veinsmobility 	totalDistance 	2133.7179895584
scalar LocScenario.node[3].veinsmobility 	totalCO2Emission 	351.79109165
scalar LocScenario.node[5].appl 	generatedWSMs 	0
scalar LocScenario.node[5].appl 	receivedWSMs 	0
scalar LocScenario.node[5].appl 	generatedBSMs 	2040
scalar LocScenario.node[5].appl 	receivedBSMs 	12113
scalar LocScenario.node[5].appl 	generatedWSAs 	0
scalar LocScenario.node[5].appl 	receivedWSAs 	0
scalar LocScenario.node[5].appl 	rmseSUMGPS 	1046131.5428252
scalar LocScenario.node[5].appl 	rmseSUMCP 	12544125.506691
scalar LocScenario.node[5].appl 	delaySum 	1.6344833368469
scalar LocScenario.node[5].nic.phy80211p 	busyTime 	0.0061752549019618
scalar LocScenario.node[5].nic.mac1609_4 	ReceivedUnicastPackets 	0
scalar LocScenario.node[5].nic.mac1609_4 	ReceivedBroadcasts 	12113
scalar LocScenario.node[5].nic.mac1609_4 	SentPackets 	2040
scalar LocScenario.node[5].nic.mac1609_4 	SNIRLostPackets 	0
scalar LocScenario.node[5].nic.mac1609_4 	RXTXLostPackets 	0
scalar LocScenario.node[5].nic.mac1609_4 	TotalLostPackets 	0
scalar LocScenario.node[5].nic.mac1609_4 	DroppedPacketsInMac 	0
scalar LocScenario.node[5].nic.mac1609_4 	TooLittleTime 	0
scalar LocScenario.node[5].nic.mac1609_4 	TimesIntoBackoff 	2040
scalar LocScenario.node[5].nic.mac1609_4 	SlotsBackoff 	3020
scalar LocScenario.node[5].nic.mac1609_4 	NumInternalContention 	0
scalar LocScenario.node[5].nic.mac1609_4 	totalBusyTime 	1.473952
scalar LocScenario.node[5].veinsmobility 	startTime 	20.1
scalar LocScenario.node[5].veinsmobility 	totalTime 	203.9
scalar LocScenario.node[5].veinsmobility 	stopTime 	224.1
scalar LocScenario.node[5].veinsmobility 	minSpeed 	10.450036204688
scalar LocScenario.node[5].veinsmobility 	maxSpeed 	10.499996099703
scalar LocScenario.node[5].veinsmobility 	totalDistance 	2133.7589197486
scalar LocScenario.node[5].veinsmobility 	totalCO2Emission 	351.8583230075
scalar LocScenario.node[0].appl 	generatedWSMs 	0
scalar LocScenario.node[0].appl 	receivedWSMs 	0
scalar LocScenario.node[0].appl 	generatedBSMs 	2281
scalar LocScenario.node[0].appl 	receivedBSMs 	8732
scalar LocScenario.node[0].appl 	generatedWSAs 	0
scalar LocScenario.node[0].appl 	receivedWSAs 	0
scalar LocScenario.node[0].appl 	rmseSUMGPS 	129146.55926933
scalar LocScenario.node[0].appl 	rmseSUMCP 	448079.96072671
scalar LocScenario.node[0].appl 	delaySum 	1.0144077050392
scalar LocScenario.node[0].nic.phy80211p 	busyTime 	0.003981271372205
scalar LocScenario.node[0].nic.mac1609_4 	ReceivedUnicastPackets 	0
scalar LocScenario.node[0].nic.mac1609_4 	ReceivedBroadcasts 	8732
scalar LocScenario.node[0].nic.mac1609_4 	SentPackets 	2281
scalar LocScenario.node[0].nic.mac1609_4 	SNIRLostPackets 	0
scalar LocScenario.node[0].nic.mac1609_4 	RXTXLostPackets 	0
scalar LocScenario.node[0].nic.mac1609_4 	TotalLostPackets 	0
scalar LocScenario.node[0].nic.mac1609_4 	DroppedPacketsInMac 	0
scalar LocScenario.node[0].nic.mac1609_4 	TooLittleTime 	0
scalar LocScenario.node[0].nic.mac1609_4 	TimesIntoBackoff 	2281
scalar LocScenario.node[0].nic.mac1609_4 	SlotsBackoff 	3463
scalar LocScenario.node[0].nic.mac1609_4 	NumInternalContention 	0
scalar LocScenario.node[0].nic.mac1609_4 	totalBusyTime 	1.147633
scalar LocScenario.node[0].veinsmobility 	startTime 	0.1
scalar LocScenario.node[0].veinsmobility 	totalTime 	228
scalar LocScenario.node[0].veinsmobility 	stopTime 	228.2
scalar LocScenario.node[0].veinsmobility 	minSpeed 	10.450012409361
scalar LocScenario.node[0].veinsmobility 	maxSpeed 	10.499966566858
scalar LocScenario.node[0].veinsmobility 	totalDistance 	2392.332313055
scalar LocScenario.node[0].veinsmobility 	totalCO2Emission 	393.54806406309
scalar LocScenario.node[7].appl 	generatedWSMs 	0
scalar LocScenario.node[7].appl 	receivedWSMs 	0
scalar LocScenario.node[7].appl 	generatedBSMs 	2040
scalar LocScenario.node[7].appl 	receivedBSMs 	12335
scalar LocScenario.node[7].appl 	generatedWSAs 	0
scalar LocScenario.node[7].appl 	receivedWSAs 	0
scalar LocScenario.node[7].appl 	rmseSUMGPS 	854659.39005632
scalar LocScenario.node[7].appl 	rmseSUMCP 	8712056.3624992
scalar LocScenario.node[7].appl 	delaySum 	1.3824904266748
scalar LocScenario.node[7].nic.phy80211p 	busyTime 	0.0062884313725501
scalar LocScenario.node[7].nic.mac1609_4 	ReceivedUnicastPackets 	0
scalar LocScenario.node[7].nic.mac1609_4 	ReceivedBroadcasts 	12335
scalar LocScenario.node[7].nic.mac1609_4 	SentPackets 	2040
scalar LocScenario.node[7].nic.mac1609_4 	SNIRLostPackets 	0
scalar LocScenario.node[7].nic.mac1609_4 	RXTXLostPackets 	0
scalar LocScenario.node[7].nic.mac1609_4 	TotalLostPackets 	0
scalar LocScenario.node[7].nic.mac1609_4 	DroppedPacketsInMac 	0
scalar LocScenario.node[7].nic.mac1609_4 	TooLittleTime 	0
scalar LocScenario.node[7].nic.mac1609_4 	TimesIntoBackoff 	2040
scalar LocScenario.node[7].nic.mac1609_4 	SlotsBackoff 	3009
scalar LocScenario.node[7].nic.mac1609_4 	NumInternalContention 	0
scalar LocScenario.node[7].nic.mac1609_4 	totalBusyTime 	1.49704
scalar LocScenario.node[7].veinsmobility 	startTime 	30.1
scalar LocScenario.node[7].veinsmobility 	totalTime 	203.9
scalar LocScenario.node[7].veinsmobility 	stopTime 	234.1
scalar LocScenario.node[7].veinsmobility 	minSpeed 	10.450005663699
scalar LocScenario.node[7].veinsmobility 	maxSpeed 	10.499985490169
scalar LocScenario.node[7].veinsmobility 	totalDistance 	2133.7285668377
scalar LocScenario.node[7].veinsmobility 	totalCO2Emission 	352.06458530245
scalar LocScenario.node[2].appl 	generatedWSMs 	0
scalar LocScenario.node[2].appl 	receivedWSMs 	0
scalar LocScenario.node[2].appl 	generatedBSMs 	2281
scalar LocScenario.node[2].appl 	receivedBSMs 	11137
scalar LocScenario.node[2].appl 	generatedWSAs 	0
scalar LocScenario.node[2].appl 	receivedWSAs 	0
scalar LocScenario.node[2].appl 	rmseSUMGPS 	801227.69010895
scalar LocScenario.node[2].appl 	rmseSUMCP 	328491.18916105
scalar LocScenario.node[2].appl 	delaySum 	1.2825676926925
scalar LocScenario.node[2].nic.phy80211p 	busyTime 	0.0050778079789571
scalar LocScenario.node[2].nic.mac1609_4 	ReceivedUnicastPackets 	0
scalar LocScenario.node[2].nic.mac1609_4 	ReceivedBroadcasts 	11137
scalar LocScenario.node[2].nic.mac1609_4 	SentPackets 	2281
scalar LocScenario.node[2].nic.mac1609_4 	SNIRLostPackets 	0
scalar LocScenario.node[2].nic.mac1609_4 	RXTXLostPackets 	0
scalar LocScenario.node[2].nic.mac1609_4 	TotalLostPackets 	0
scalar LocScenario.node[2].nic.mac1609_4 	DroppedPacketsInMac 	0
scalar LocScenario.node[2].nic.mac1609_4 	TooLittleTime 	0
scalar LocScenario.node[2].nic.mac1609_4 	TimesIntoBackoff 	2281
scalar LocScenario.node[2].nic.mac1609_4 	SlotsBackoff 	3392
scalar LocScenario.node[2].nic.mac1609_4 	NumInternalContention 	0
scalar LocScenario.node[2].nic.mac1609_4 	totalBusyTime 	1.397753
scalar LocScenario.node[2].veinsmobility 	startTime 	10.1
scalar LocScenario.node[2].veinsmobility 	totalTime 	228
scalar LocScenario.node[2].veinsmobility 	stopTime 	238.2
scalar LocScenario.node[2].veinsmobility 	minSpeed 	10.450013517588
scalar LocScenario.node[2].veinsmobility 	maxSpeed 	10.499992050941
scalar LocScenario.node[2].veinsmobility 	totalDistance 	2388.8254348448
scalar LocScenario.node[2].veinsmobility 	totalCO2Emission 	393.07801891605
scalar LocScenario.node[9].appl 	generatedWSMs 	0
scalar LocScenario.node[9].appl 	receivedWSMs 	0
scalar LocScenario.node[9].appl 	generatedBSMs 	2040
scalar LocScenario.node[9].appl 	receivedBSMs 	12540
scalar LocScenario.node[9].appl 	generatedWSAs 	0
scalar LocScenario.node[9].appl 	receivedWSAs 	0
scalar LocScenario.node[9].appl 	rmseSUMGPS 	686671.62973988
scalar LocScenario.node[9].appl 	rmseSUMCP 	2632342.9323679
scalar LocScenario.node[9].appl 	delaySum 	1.4051476557575
scalar LocScenario.node[9].nic.phy80211p 	busyTime 	0.0063934509803934
scalar LocScenario.node[9].nic.mac1609_4 	ReceivedUnicastPackets 	0
scalar LocScenario.node[9].nic.mac1609_4 	ReceivedBroadcasts 	12540
scalar LocScenario.node[9].nic.mac1609_4 	SentPackets 	2040
scalar LocScenario.node[9].nic.mac1609_4 	SNIRLostPackets 	1
scalar LocScenario.node[9].nic.mac1609_4 	RXTXLostPackets 	0
scalar LocScenario.node[9].nic.mac1609_4 	TotalLostPackets 	1
scalar LocScenario.node[9].nic.mac1609_4 	DroppedPacketsInMac 	0
scalar LocScenario.node[9].nic.mac1609_4 	TooLittleTime 	0
scalar LocScenario.node[9].nic.mac1609_4 	TimesIntoBackoff 	2040
scalar LocScenario.node[9].nic.mac1609_4 	SlotsBackoff 	2948
scalar LocScenario.node[9].nic.mac1609_4 	NumInternalContention 	0
scalar LocScenario.node[9].nic.mac1609_4 	totalBusyTime 	1.518464
scalar LocScenario.node[9].veinsmobility 	startTime 	40.1
scalar LocScenario.node[9].veinsmobility 	totalTime 	203.9
scalar LocScenario.node[9].veinsmobility 	stopTime 	244.1
scalar LocScenario.node[9].veinsmobility 	minSpeed 	10.450016005232
scalar LocScenario.node[9].veinsmobility 	maxSpeed 	10.499975187553
scalar LocScenario.node[9].veinsmobility 	totalDistance 	2133.8507222644
scalar LocScenario.node[9].veinsmobility 	totalCO2Emission 	352.02021066602
scalar LocScenario.node[4].appl 	generatedWSMs 	0
scalar LocScenario.node[4].appl 	receivedWSMs 	0
scalar LocScenario.node[4].appl 	generatedBSMs 	2281
scalar LocScenario.node[4].appl 	receivedBSMs 	13367
scalar LocScenario.node[4].appl 	generatedWSAs 	0
scalar LocScenario.node[4].appl 	receivedWSAs 	0
scalar LocScenario.node[4].appl 	rmseSUMGPS 	125776.84554587
scalar LocScenario.node[4].appl 	rmseSUMCP 	869570.31155219
scalar LocScenario.node[4].appl 	delaySum 	1.5321769305917
scalar LocScenario.node[4].nic.phy80211p 	busyTime 	0.0060945550197297
scalar LocScenario.node[4].nic.mac1609_4 	ReceivedUnicastPackets 	0
scalar LocScenario.node[4].nic.mac1609_4 	ReceivedBroadcasts 	13367
scalar LocScenario.node[4].nic.mac1609_4 	SentPackets 	2281
scalar LocScenario.node[4].nic.mac1609_4 	SNIRLostPackets 	0
scalar LocScenario.node[4].nic.mac1609_4 	RXTXLostPackets 	0
scalar LocScenario.node[4].nic.mac1609_4 	TotalLostPackets 	0
scalar LocScenario.node[4].nic.mac1609_4 	DroppedPacketsInMac 	0
scalar LocScenario.node[4].nic.mac1609_4 	TooLittleTime 	0
scalar LocScenario.node[4].nic.mac1609_4 	TimesIntoBackoff 	2281
scalar LocScenario.node[4].nic.mac1609_4 	SlotsBackoff 	3428
scalar LocScenario.node[4].nic.mac1609_4 	NumInternalContention 	0
scalar LocScenario.node[4].nic.mac1609_4 	totalBusyTime 	1.629673
scalar LocScenario.node[4].veinsmobility 	startTime 	20.1
scalar LocScenario.node[4].veinsmobility 	totalTime 	228
scalar LocScenario.node[4].veinsmobility 	stopTime 	248.2
scalar LocScenario.node[4].veinsmobility 	minSpeed 	10.450083486759
scalar LocScenario.node[4].veinsmobility 	maxSpeed 	10.499971416849
scalar LocScenario.node[4].veinsmobility 	totalDistance 	2392.2559618024
scalar LocScenario.node[4].veinsmobility 	totalCO2Emission 	393.45351957959
scalar LocScenario.node[11].appl 	generatedWSMs 	0
scalar LocScenario.node[11].appl 	receivedWSMs 	0
scalar LocScenario.node[11].appl 	generatedBSMs 	2040
scalar LocScenario.node[11].appl 	receivedBSMs 	12745
scalar LocScenario.node[11].appl 	generatedWSAs 	0
scalar LocScenario.node[11].appl 	receivedWSAs 	0
scalar LocScenario.node[11].appl 	rmseSUMGPS 	720743.88597605
scalar LocScenario.node[11].appl 	rmseSUMCP 	1825120.2708663
scalar LocScenario.node[11].appl 	delaySum 	1.429887958772
scalar LocScenario.node[11].nic.phy80211p 	busyTime 	0.0065137647058837
scalar LocScenario.node[11].nic.mac1609_4 	ReceivedUnicastPackets 	0
scalar LocScenario.node[11].nic.mac1609_4 	ReceivedBroadcasts 	12745
scalar LocScenario.node[11].nic.mac1609_4 	SentPackets 	2040
scalar LocScenario.node[11].nic.mac1609_4 	SNIRLostPackets 	32
scalar LocScenario.node[11].nic.mac1609_4 	RXTXLostPackets 	0
scalar LocScenario.node[11].nic.mac1609_4 	TotalLostPackets 	32
scalar LocScenario.node[11].nic.mac1609_4 	DroppedPacketsInMac 	0
scalar LocScenario.node[11].nic.mac1609_4 	TooLittleTime 	0
scalar LocScenario.node[11].nic.mac1609_4 	TimesIntoBackoff 	2040
scalar LocScenario.node[11].nic.mac1609_4 	SlotsBackoff 	3107
scalar LocScenario.node[11].nic.mac1609_4 	NumInternalContention 	0
scalar LocScenario.node[11].nic.mac1609_4 	totalBusyTime 	1.543008
scalar LocScenario.node[11].veinsmobility 	startTime 	50.1
scalar LocScenario.node[11].veinsmobility 	totalTime 	203.9
scalar LocScenario.node[11].veinsmobility 	stopTime 	254.1
scalar LocScenario.node[11].veinsmobility 	minSpeed 	10.450020922371
scalar LocScenario.node[11].veinsmobility 	maxSpeed 	10.499994401808
scalar LocScenario.node[11].veinsmobility 	totalDistance 	2133.9389452338
scalar LocScenario.node[11].veinsmobility 	totalCO2Emission 	351.89742031389
scalar LocScenario.node[6].appl 	generatedWSMs 	0
scalar LocScenario.node[6].appl 	receivedWSMs 	0
scalar LocScenario.node[6].appl 	generatedBSMs 	2281
scalar LocScenario.node[6].appl 	receivedBSMs 	13586
scalar LocScenario.node[6].appl 	generatedWSAs 	0
scalar LocScenario.node[6].appl 	receivedWSAs 	0
scalar LocScenario.node[6].appl 	rmseSUMGPS 	22200.15929141
scalar LocScenario.node[6].appl 	rmseSUMCP 	838784.84641744
scalar LocScenario.node[6].appl 	delaySum 	1.5586601143936
scalar LocScenario.node[6].nic.phy80211p 	busyTime 	0.0061966856641839
scalar LocScenario.node[6].nic.mac1609_4 	ReceivedUnicastPackets 	0
scalar LocScenario.node[6].nic.mac1609_4 	ReceivedBroadcasts 	13586
scalar LocScenario.node[6].nic.mac1609_4 	SentPackets 	2281
scalar LocScenario.node[6].nic.mac1609_4 	SNIRLostPackets 	5
scalar LocScenario.node[6].nic.mac1609_4 	RXTXLostPackets 	0
scalar LocScenario.node[6].nic.mac1609_4 	TotalLostPackets 	5
scalar LocScenario.node[6].nic.mac1609_4 	DroppedPacketsInMac 	0
scalar LocScenario.node[6].nic.mac1609_4 	TooLittleTime 	0
scalar LocScenario.node[6].nic.mac1609_4 	TimesIntoBackoff 	2281
scalar LocScenario.node[6].nic.mac1609_4 	SlotsBackoff 	3509
scalar LocScenario.node[6].nic.mac1609_4 	NumInternalContention 	0
scalar LocScenario.node[6].nic.mac1609_4 	totalBusyTime 	1.652969
scalar LocScenario.node[6].veinsmobility 	startTime 	30.1
scalar LocScenario.node[6].veinsmobility 	totalTime 	228
scalar LocScenario.node[6].veinsmobility 	stopTime 	258.2
scalar LocScenario.node[6].veinsmobility 	minSpeed 	10.450000275485
scalar LocScenario.node[6].veinsmobility 	maxSpeed 	10.499965568318
scalar LocScenario.node[6].veinsmobility 	totalDistance 	2392.3083965922
scalar LocScenario.node[6].veinsmobility 	totalCO2Emission 	393.42546299657
scalar LocScenario.node[13].appl 	generatedWSMs 	0
scalar LocScenario.node[13].appl 	receivedWSMs 	0
scalar LocScenario.node[13].appl 	generatedBSMs 	2040
scalar LocScenario.node[13].appl 	receivedBSMs 	12694
scalar LocScenario.node[13].appl 	generatedWSAs 	0
scalar LocScenario.node[13].appl 	receivedWSAs 	0
scalar LocScenario.node[13].appl 	rmseSUMGPS 	716750.0879795
scalar LocScenario.node[13].appl 	rmseSUMCP 	3332740.1485133
scalar LocScenario.node[13].appl 	delaySum 	1.4592114974152
scalar LocScenario.node[13].nic.phy80211p 	busyTime 	0.0066131764705897
scalar LocScenario.node[13].nic.mac1609_4 	ReceivedUnicastPackets 	0
scalar LocScenario.node[13].nic.mac1609_4 	ReceivedBroadcasts 	12694
scalar LocScenario.node[13].nic.mac1609_4 	SentPackets 	2040
scalar LocScenario.node[13].nic.mac1609_4 	SNIRLostPackets 	278
scalar LocScenario.node[13].nic.mac1609_4 	RXTXLostPackets 	0
scalar LocScenario.node[13].nic.mac1609_4 	TotalLostPackets 	278
scalar LocScenario.node[13].nic.mac1609_4 	DroppedPacketsInMac 	0
scalar LocScenario.node[13].nic.mac1609_4 	TooLittleTime 	0
scalar LocScenario.node[13].nic.mac1609_4 	TimesIntoBackoff 	2040
scalar LocScenario.node[13].nic.mac1609_4 	SlotsBackoff 	3215
scalar LocScenario.node[13].nic.mac1609_4 	NumInternalContention 	0
scalar LocScenario.node[13].nic.mac1609_4 	totalBusyTime 	1.552888
scalar LocScenario.node[13].veinsmobility 	startTime 	60.1
scalar LocScenario.node[13].veinsmobility 	totalTime 	203.9
scalar LocScenario.node[13].veinsmobility 	stopTime 	264.1
scalar LocScenario.node[13].veinsmobility 	minSpeed 	10.450052071863
scalar LocScenario.node[13].veinsmobility 	maxSpeed 	10.499987582432
scalar LocScenario.node[13].veinsmobility 	totalDistance 	2138.7061460591
scalar LocScenario.node[13].veinsmobility 	totalCO2Emission 	351.99086656234
scalar LocScenario.node[8].appl 	generatedWSMs 	0
scalar LocScenario.node[8].appl 	receivedWSMs 	0
scalar LocScenario.node[8].appl 	generatedBSMs 	2281
scalar LocScenario.node[8].appl 	receivedBSMs 	13782
scalar LocScenario.node[8].appl 	generatedWSAs 	0
scalar LocScenario.node[8].appl 	receivedWSAs 	0
scalar LocScenario.node[8].appl 	rmseSUMGPS 	95436.781803095
scalar LocScenario.node[8].appl 	rmseSUMCP 	1040274.0827503
scalar LocScenario.node[8].appl 	delaySum 	2.5196862748883e+180
scalar LocScenario.node[8].nic.phy80211p 	busyTime 	0.0062969925471301
scalar LocScenario.node[8].nic.mac1609_4 	ReceivedUnicastPackets 	0
scalar LocScenario.node[8].nic.mac1609_4 	ReceivedBroadcasts 	13782
scalar LocScenario.node[8].nic.mac1609_4 	SentPackets 	2281
scalar LocScenario.node[8].nic.mac1609_4 	SNIRLostPackets 	29
scalar LocScenario.node[8].nic.mac1609_4 	RXTXLostPackets 	0
scalar LocScenario.node[8].nic.mac1609_4 	TotalLostPackets 	29
scalar LocScenario.node[8].nic.mac1609_4 	DroppedPacketsInMac 	0
scalar LocScenario.node[8].nic.mac1609_4 	TooLittleTime 	0
scalar LocScenario.node[8].nic.mac1609_4 	TimesIntoBackoff 	2281
scalar LocScenario.node[8].nic.mac1609_4 	SlotsBackoff 	3448
scalar LocScenario.node[8].nic.mac1609_4 	NumInternalContention 	0
scalar LocScenario.node[8].nic.mac1609_4 	totalBusyTime 	1.675849
scalar LocScenario.node[8].veinsmobility 	startTime 	40.1
scalar LocScenario.node[8].veinsmobility 	totalTime 	228
scalar LocScenario.node[8].veinsmobility 	stopTime 	268.2
scalar LocScenario.node[8].veinsmobility 	minSpeed 	10.450069962861
scalar LocScenario.node[8].veinsmobility 	maxSpeed 	10.499992547766
scalar LocScenario.node[8].veinsmobility 	totalDistance 	2394.6718964062
scalar LocScenario.node[8].veinsmobility 	totalCO2Emission 	393.38627081934
scalar LocScenario.node[15].appl 	generatedWSMs 	0
scalar LocScenario.node[15].appl 	receivedWSMs 	0
scalar LocScenario.node[15].appl 	generatedBSMs 	2040
scalar LocScenario.node[15].appl 	receivedBSMs 	12692
scalar LocScenario.node[15].appl 	generatedWSAs 	0
scalar LocScenario.node[15].appl 	receivedWSAs 	0
scalar LocScenario.node[15].appl 	rmseSUMGPS 	1193591.4979221
scalar LocScenario.node[15].appl 	rmseSUMCP 	1614102.0245397
scalar LocScenario.node[15].appl 	delaySum 	1.4633025276221
scalar LocScenario.node[15].nic.phy80211p 	busyTime 	0.0067324705882369
scalar LocScenario.node[15].nic.mac1609_4 	ReceivedUnicastPackets 	0
scalar LocScenario.node[15].nic.mac1609_4 	ReceivedBroadcasts 	12692
scalar LocScenario.node[15].nic.mac1609_4 	SentPackets 	2040
scalar LocScenario.node[15].nic.mac1609_4 	SNIRLostPackets 	514
scalar LocScenario.node[15].nic.mac1609_4 	RXTXLostPackets 	0
scalar LocScenario.node[15].nic.mac1609_4 	TotalLostPackets 	514
scalar LocScenario.node[15].nic.mac1609_4 	DroppedPacketsInMac 	0
scalar LocScenario.node[15].nic.mac1609_4 	TooLittleTime 	0
scalar LocScenario.node[15].nic.mac1609_4 	TimesIntoBackoff 	2040
scalar LocScenario.node[15].nic.mac1609_4 	SlotsBackoff 	3098
scalar LocScenario.node[15].nic.mac1609_4 	NumInternalContention 	0
scalar LocScenario.node[15].nic.mac1609_4 	totalBusyTime 	1.567969020154
scalar LocScenario.node[15].veinsmobility 	startTime 	70.1
scalar LocScenario.node[15].veinsmobility 	totalTime 	203.9
scalar LocScenario.node[15].veinsmobility 	stopTime 	274.1
scalar LocScenario.node[15].veinsmobility 	minSpeed 	10.450002176687
scalar LocScenario.node[15].veinsmobility 	maxSpeed 	10.499992276845
scalar LocScenario.node[15].veinsmobility 	totalDistance 	2133.8645214429
scalar LocScenario.node[15].veinsmobility 	totalCO2Emission 	351.65919693663
scalar LocScenario.node[10].appl 	generatedWSMs 	0
scalar LocScenario.node[10].appl 	receivedWSMs 	0
scalar LocScenario.node[10].appl 	generatedBSMs 	2281
scalar LocScenario.node[10].appl 	receivedBSMs 	13779
scalar LocScenario.node[10].appl 	generatedWSAs 	0
scalar LocScenario.node[10].appl 	receivedWSAs 	0
scalar LocScenario.node[10].appl 	rmseSUMGPS 	957538.15968936
scalar LocScenario.node[10].appl 	rmseSUMCP 	863545.95609283
scalar LocScenario.node[10].appl 	delaySum 	5.1563607729066e+16
scalar LocScenario.node[10].nic.phy80211p 	busyTime 	0.0064000350723385
scalar LocScenario.node[10].nic.mac1609_4 	ReceivedUnicastPackets 	0
scalar LocScenario.node[10].nic.mac1609_4 	ReceivedBroadcasts 	13779
scalar LocScenario.node[10].nic.mac1609_4 	SentPackets 	2281
scalar LocScenario.node[10].nic.mac1609_4 	SNIRLostPackets 	258
scalar LocScenario.node[10].nic.mac1609_4 	RXTXLostPackets 	0
scalar LocScenario.node[10].nic.mac1609_4 	TotalLostPackets 	258
scalar LocScenario.node[10].nic.mac1609_4 	DroppedPacketsInMac 	0
scalar LocScenario.node[10].nic.mac1609_4 	TooLittleTime 	0
scalar LocScenario.node[10].nic.mac1609_4 	TimesIntoBackoff 	2281
scalar LocScenario.node[10].nic.mac1609_4 	SlotsBackoff 	3391
scalar LocScenario.node[10].nic.mac1609_4 	NumInternalContention 	0
scalar LocScenario.node[10].nic.mac1609_4 	totalBusyTime 	1.690201
scalar LocScenario.node[10].veinsmobility 	startTime 	50.1
scalar LocScenario.node[10].veinsmobility 	totalTime 	228
scalar LocScenario.node[10].veinsmobility 	stopTime 	278.2
scalar LocScenario.node[10].veinsmobility 	minSpeed 	10.45002996173
scalar LocScenario.node[10].veinsmobility 	maxSpeed 	10.499992680736
scalar LocScenario.node[10].veinsmobility 	totalDistance 	2388.8483674731
scalar LocScenario.node[10].veinsmobility 	totalCO2Emission 	393.32588464591
scalar LocScenario.node[17].appl 	generatedWSMs 	0
scalar LocScenario.node[17].appl 	receivedWSMs 	0
scalar LocScenario.node[17].appl 	generatedBSMs 	2040
scalar LocScenario.node[17].appl 	receivedBSMs 	13210
scalar LocScenario.node[17].appl 	generatedWSAs 	0
scalar LocScenario.node[17].appl 	receivedWSAs 	0
scalar LocScenario.node[17].appl 	rmseSUMGPS 	666525.79087398
scalar LocScenario.node[17].appl 	rmseSUMCP 	734296.46959788
scalar LocScenario.node[17].appl 	delaySum 	1.4943901176021
scalar LocScenario.node[17].nic.phy80211p 	busyTime 	0.0068415686274527
scalar LocScenario.node[17].nic.mac1609_4 	ReceivedUnicastPackets 	0
scalar LocScenario.node[17].nic.mac1609_4 	ReceivedBroadcasts 	13210
scalar LocScenario.node[17].nic.mac1609_4 	SentPackets 	2040
scalar LocScenario.node[17].nic.mac1609_4 	SNIRLostPackets 	210
scalar LocScenario.node[17].nic.mac1609_4 	RXTXLostPackets 	0
scalar LocScenario.node[17].nic.mac1609_4 	TotalLostPackets 	210
scalar LocScenario.node[17].nic.mac1609_4 	DroppedPacketsInMac 	0
scalar LocScenario.node[17].nic.mac1609_4 	TooLittleTime 	0
scalar LocScenario.node[17].nic.mac1609_4 	TimesIntoBackoff 	2261
scalar LocScenario.node[17].nic.mac1609_4 	SlotsBackoff 	3384
scalar LocScenario.node[17].nic.mac1609_4 	NumInternalContention 	0
scalar LocScenario.node[17].nic.mac1609_4 	totalBusyTime 	1.596776
scalar LocScenario.node[17].veinsmobility 	startTime 	80.1
scalar LocScenario.node[17].veinsmobility 	totalTime 	203.9
scalar LocScenario.node[17].veinsmobility 	stopTime 	284.1
scalar LocScenario.node[17].veinsmobility 	minSpeed 	10.450026302878
scalar LocScenario.node[17].veinsmobility 	maxSpeed 	10.499959524639
scalar LocScenario.node[17].veinsmobility 	totalDistance 	2133.8509144576
scalar LocScenario.node[17].veinsmobility 	totalCO2Emission 	351.70980092642
scalar LocScenario.node[12].appl 	generatedWSMs 	0
scalar LocScenario.node[12].appl 	receivedWSMs 	0
scalar LocScenario.node[12].appl 	generatedBSMs 	2281
scalar LocScenario.node[12].appl 	receivedBSMs 	14145
scalar LocScenario.node[12].appl 	generatedWSAs 	0
scalar LocScenario.node[12].appl 	receivedWSAs 	0
scalar LocScenario.node[12].appl 	rmseSUMGPS 	35159.729761983
scalar LocScenario.node[12].appl 	rmseSUMCP 	819073.19480463
scalar LocScenario.node[12].appl 	delaySum 	1.6433383963562
scalar LocScenario.node[12].nic.phy80211p 	busyTime 	0.0064980622533995
scalar LocScenario.node[12].nic.mac1609_4 	ReceivedUnicastPackets 	0
scalar LocScenario.node[12].nic.mac1609_4 	ReceivedBroadcasts 	14145
scalar LocScenario.node[12].nic.mac1609_4 	SentPackets 	2281
scalar LocScenario.node[12].nic.mac1609_4 	SNIRLostPackets 	107
scalar LocScenario.node[12].nic.mac1609_4 	RXTXLostPackets 	0
scalar LocScenario.node[12].nic.mac1609_4 	TotalLostPackets 	107
scalar LocScenario.node[12].nic.mac1609_4 	DroppedPacketsInMac 	0
scalar LocScenario.node[12].nic.mac1609_4 	TooLittleTime 	0
scalar LocScenario.node[12].nic.mac1609_4 	TimesIntoBackoff 	2281
scalar LocScenario.node[12].nic.mac1609_4 	SlotsBackoff 	3444
scalar LocScenario.node[12].nic.mac1609_4 	NumInternalContention 	0
scalar LocScenario.node[12].nic.mac1609_4 	totalBusyTime 	1.717241
scalar LocScenario.node[12].veinsmobility 	startTime 	60.1
scalar LocScenario.node[12].veinsmobility 	totalTime 	228
scalar LocScenario.node[12].veinsmobility 	stopTime 	288.2
scalar LocScenario.node[12].veinsmobility 	minSpeed 	10.450009427406
scalar LocScenario.node[12].veinsmobility 	maxSpeed 	10.499994147744
scalar LocScenario.node[12].veinsmobility 	totalDistance 	2392.315454024
scalar LocScenario.node[12].veinsmobility 	totalCO2Emission 	393.23781121947
scalar LocScenario.node[19].appl 	generatedWSMs 	0
scalar LocScenario.node[19].appl 	receivedWSMs 	0
scalar LocScenario.node[19].appl 	generatedBSMs 	2040
scalar LocScenario.node[19].appl 	receivedBSMs 	13421
scalar LocScenario.node[19].appl 	generatedWSAs 	0
scalar LocScenario.node[19].appl 	receivedWSAs 	0
scalar LocScenario.node[19].appl 	rmseSUMGPS 	1623834.0880856
scalar LocScenario.node[19].appl 	rmseSUMCP 	658701.23158186
scalar LocScenario.node[19].appl 	delaySum 	1.5460526291763
scalar LocScenario.node[19].nic.phy80211p 	busyTime 	0.006892039215688
scalar LocScenario.node[19].nic.mac1609_4 	ReceivedUnicastPackets 	0
scalar LocScenario.node[19].nic.mac1609_4 	ReceivedBroadcasts 	13421
scalar LocScenario.node[19].nic.mac1609_4 	SentPackets 	2040
scalar LocScenario.node[19].nic.mac1609_4 	SNIRLostPackets 	98
scalar LocScenario.node[19].nic.mac1609_4 	RXTXLostPackets 	118
scalar LocScenario.node[19].nic.mac1609_4 	TotalLostPackets 	216
scalar LocScenario.node[19].nic.mac1609_4 	DroppedPacketsInMac 	0
scalar LocScenario.node[19].nic.mac1609_4 	TooLittleTime 	0
scalar LocScenario.node[19].nic.mac1609_4 	TimesIntoBackoff 	2040
scalar LocScenario.node[19].nic.mac1609_4 	SlotsBackoff 	3007
scalar LocScenario.node[19].nic.mac1609_4 	NumInternalContention 	0
scalar LocScenario.node[19].nic.mac1609_4 	totalBusyTime 	1.615080390856
scalar LocScenario.node[19].veinsmobility 	startTime 	90.1
scalar LocScenario.node[19].veinsmobility 	totalTime 	203.9
scalar LocScenario.node[19].veinsmobility 	stopTime 	294.1
scalar LocScenario.node[19].veinsmobility 	minSpeed 	10.450002106337
scalar LocScenario.node[19].veinsmobility 	maxSpeed 	10.499971718132
scalar LocScenario.node[19].veinsmobility 	totalDistance 	2138.7263661494
scalar LocScenario.node[19].veinsmobility 	totalCO2Emission 	352.01250666553
scalar LocScenario.node[14].appl 	generatedWSMs 	0
scalar LocScenario.node[14].appl 	receivedWSMs 	0
scalar LocScenario.node[14].appl 	generatedBSMs 	2281
scalar LocScenario.node[14].appl 	receivedBSMs 	14084
scalar LocScenario.node[14].appl 	generatedWSAs 	0
scalar LocScenario.node[14].appl 	receivedWSAs 	0
scalar LocScenario.node[14].appl 	rmseSUMGPS 	53158.799443597
scalar LocScenario.node[14].appl 	rmseSUMCP 	758764.96595341
scalar LocScenario.node[14].appl 	delaySum 	3.4084129367212e+184
scalar LocScenario.node[14].nic.phy80211p 	busyTime 	0.0065947216133295
scalar LocScenario.node[14].nic.mac1609_4 	ReceivedUnicastPackets 	0
scalar LocScenario.node[14].nic.mac1609_4 	ReceivedBroadcasts 	14084
scalar LocScenario.node[14].nic.mac1609_4 	SentPackets 	2281
scalar LocScenario.node[14].nic.mac1609_4 	SNIRLostPackets 	380
scalar LocScenario.node[14].nic.mac1609_4 	RXTXLostPackets 	0
scalar LocScenario.node[14].nic.mac1609_4 	TotalLostPackets 	380
scalar LocScenario.node[14].nic.mac1609_4 	DroppedPacketsInMac 	0
scalar LocScenario.node[14].nic.mac1609_4 	TooLittleTime 	0
scalar LocScenario.node[14].nic.mac1609_4 	TimesIntoBackoff 	2281
scalar LocScenario.node[14].nic.mac1609_4 	SlotsBackoff 	3369
scalar LocScenario.node[14].nic.mac1609_4 	NumInternalContention 	0
scalar LocScenario.node[14].nic.mac1609_4 	totalBusyTime 	1.729305178471
scalar LocScenario.node[14].veinsmobility 	startTime 	70.1
scalar LocScenario.node[14].veinsmobility 	totalTime 	228
scalar LocScenario.node[14].veinsmobility 	stopTime 	298.2
scalar LocScenario.node[14].veinsmobility 	minSpeed 	10.450002982793
scalar LocScenario.node[14].veinsmobility 	maxSpeed 	10.499955375132
scalar LocScenario.node[14].veinsmobility 	totalDistance 	2394.6222945873
scalar LocScenario.node[14].veinsmobility 	totalCO2Emission 	393.19459128166
scalar LocScenario.node[21].appl 	generatedWSMs 	0
scalar LocScenario.node[21].appl 	receivedWSMs 	0
scalar LocScenario.node[21].appl 	generatedBSMs 	2040
scalar LocScenario.node[21].appl 	receivedBSMs 	13344
scalar LocScenario.node[21].appl 	generatedWSAs 	0
scalar LocScenario.node[21].appl 	receivedWSAs 	0
scalar LocScenario.node[21].appl 	rmseSUMGPS 	879670.33057527
scalar LocScenario.node[21].appl 	rmseSUMCP 	660504.2268907
scalar LocScenario.node[21].appl 	delaySum 	1.5354783670997
scalar LocScenario.node[21].nic.phy80211p 	busyTime 	0.0070643529411784
scalar LocScenario.node[21].nic.mac1609_4 	ReceivedUnicastPackets 	0
scalar LocScenario.node[21].nic.mac1609_4 	ReceivedBroadcasts 	13344
scalar LocScenario.node[21].nic.mac1609_4 	SentPackets 	2040
scalar LocScenario.node[21].nic.mac1609_4 	SNIRLostPackets 	513
scalar LocScenario.node[21].nic.mac1609_4 	RXTXLostPackets 	0
scalar LocScenario.node[21].nic.mac1609_4 	TotalLostPackets 	513
scalar LocScenario.node[21].nic.mac1609_4 	DroppedPacketsInMac 	0
scalar LocScenario.node[21].nic.mac1609_4 	TooLittleTime 	0
scalar LocScenario.node[21].nic.mac1609_4 	TimesIntoBackoff 	2040
scalar LocScenario.node[21].nic.mac1609_4 	SlotsBackoff 	3072
scalar LocScenario.node[21].nic.mac1609_4 	NumInternalContention 	0
scalar LocScenario.node[21].nic.mac1609_4 	totalBusyTime 	1.628080026081
scalar LocScenario.node[21].veinsmobility 	startTime 	100.1
scalar LocScenario.node[21].veinsmobility 	totalTime 	203.9
scalar LocScenario.node[21].veinsmobility 	stopTime 	304.1
scalar LocScenario.node[21].veinsmobility 	minSpeed 	10.450027925381
scalar LocScenario.node[21].veinsmobility 	maxSpeed 	10.499983610399
scalar LocScenario.node[21].veinsmobility 	totalDistance 	2138.8022767069
scalar LocScenario.node[21].veinsmobility 	totalCO2Emission 	351.718784552
scalar LocScenario.node[16].appl 	generatedWSMs 	0
scalar LocScenario.node[16].appl 	receivedWSMs 	0
scalar LocScenario.node[16].appl 	generatedBSMs 	2281
scalar LocScenario.node[16].appl 	receivedBSMs 	14355
scalar LocScenario.node[16].appl 	generatedWSAs 	0
scalar LocScenario.node[16].appl 	receivedWSAs 	0
scalar LocScenario.node[16].appl 	rmseSUMGPS 	56618.536744065
scalar LocScenario.node[16].appl 	rmseSUMCP 	922067.65704965
scalar LocScenario.node[16].appl 	delaySum 	1.6799509178015
scalar LocScenario.node[16].nic.phy80211p 	busyTime 	0.0066904690925054
scalar LocScenario.node[16].nic.mac1609_4 	ReceivedUnicastPackets 	0
scalar LocScenario.node[16].nic.mac1609_4 	ReceivedBroadcasts 	14355
scalar LocScenario.node[16].nic.mac1609_4 	SentPackets 	2281
scalar LocScenario.node[16].nic.mac1609_4 	SNIRLostPackets 	319
scalar LocScenario.node[16].nic.mac1609_4 	RXTXLostPackets 	0
scalar LocScenario.node[16].nic.mac1609_4 	TotalLostPackets 	319
scalar LocScenario.node[16].nic.mac1609_4 	DroppedPacketsInMac 	0
scalar LocScenario.node[16].nic.mac1609_4 	TooLittleTime 	0
scalar LocScenario.node[16].nic.mac1609_4 	TimesIntoBackoff 	2281
scalar LocScenario.node[16].nic.mac1609_4 	SlotsBackoff 	3438
scalar LocScenario.node[16].nic.mac1609_4 	NumInternalContention 	0
scalar LocScenario.node[16].nic.mac1609_4 	totalBusyTime 	1.74729703999
scalar LocScenario.node[16].veinsmobility 	startTime 	80.1
scalar LocScenario.node[16].veinsmobility 	totalTime 	228
scalar LocScenario.node[16].veinsmobility 	stopTime 	308.2
scalar LocScenario.node[16].veinsmobility 	minSpeed 	10.450017651019
scalar LocScenario.node[16].veinsmobility 	maxSpeed 	10.499998915137
scalar LocScenario.node[16].veinsmobility 	totalDistance 	2394.7239314713
scalar LocScenario.node[16].veinsmobility 	totalCO2Emission 	394.00109048838
scalar LocScenario.node[23].appl 	generatedWSMs 	0
scalar LocScenario.node[23].appl 	receivedWSMs 	0
scalar LocScenario.node[23].appl 	generatedBSMs 	2040
scalar LocScenario.node[23].appl 	receivedBSMs 	13648
scalar LocScenario.node[23].appl 	generatedWSAs 	0
scalar LocScenario.node[23].appl 	receivedWSAs 	0
scalar LocScenario.node[23].appl 	rmseSUMGPS 	944789.15563018
scalar LocScenario.node[23].appl 	rmseSUMCP 	616290.32465216
scalar LocScenario.node[23].appl 	delaySum 	1.537373332084
scalar LocScenario.node[23].nic.phy80211p 	busyTime 	0.0071749803921589
scalar LocScenario.node[23].nic.mac1609_4 	ReceivedUnicastPackets 	0
scalar LocScenario.node[23].nic.mac1609_4 	ReceivedBroadcasts 	13648
scalar LocScenario.node[23].nic.mac1609_4 	SentPackets 	2040
scalar LocScenario.node[23].nic.mac1609_4 	SNIRLostPackets 	426
scalar LocScenario.node[23].nic.mac1609_4 	RXTXLostPackets 	0
scalar LocScenario.node[23].nic.mac1609_4 	TotalLostPackets 	426
scalar LocScenario.node[23].nic.mac1609_4 	DroppedPacketsInMac 	0
scalar LocScenario.node[23].nic.mac1609_4 	TooLittleTime 	0
scalar LocScenario.node[23].nic.mac1609_4 	TimesIntoBackoff 	2040
scalar LocScenario.node[23].nic.mac1609_4 	SlotsBackoff 	3028
scalar LocScenario.node[23].nic.mac1609_4 	NumInternalContention 	0
scalar LocScenario.node[23].nic.mac1609_4 	totalBusyTime 	1.657732319518
scalar LocScenario.node[23].veinsmobility 	startTime 	110.1
scalar LocScenario.node[23].veinsmobility 	totalTime 	203.9
scalar LocScenario.node[23].veinsmobility 	stopTime 	314.1
scalar LocScenario.node[23].veinsmobility 	minSpeed 	10.450003422482
scalar LocScenario.node[23].veinsmobility 	maxSpeed 	10.499964512081
scalar LocScenario.node[23].veinsmobility 	totalDistance 	2138.6604843487
scalar LocScenario.node[23].veinsmobility 	totalCO2Emission 	351.8310694159
scalar LocScenario.node[18].appl 	generatedWSMs 	0
scalar LocScenario.node[18].appl 	receivedWSMs 	0
scalar LocScenario.node[18].appl 	generatedBSMs 	2281
scalar LocScenario.node[18].appl 	receivedBSMs 	14470
scalar LocScenario.node[18].appl 	generatedWSAs 	0
scalar LocScenario.node[18].appl 	receivedWSAs 	0
scalar LocScenario.node[18].appl 	rmseSUMGPS 	698553.68562365
scalar LocScenario.node[18].appl 	rmseSUMCP 	903780.51641145
scalar LocScenario.node[18].appl 	delaySum 	1.6723865889345
scalar LocScenario.node[18].nic.phy80211p 	busyTime 	0.0067324156071919
scalar LocScenario.node[18].nic.mac1609_4 	ReceivedUnicastPackets 	0
scalar LocScenario.node[18].nic.mac1609_4 	ReceivedBroadcasts 	14470
scalar LocScenario.node[18].nic.mac1609_4 	SentPackets 	2281
scalar LocScenario.node[18].nic.mac1609_4 	SNIRLostPackets 	296
scalar LocScenario.node[18].nic.mac1609_4 	RXTXLostPackets 	118
scalar LocScenario.node[18].nic.mac1609_4 	TotalLostPackets 	414
scalar LocScenario.node[18].nic.mac1609_4 	DroppedPacketsInMac 	0
scalar LocScenario.node[18].nic.mac1609_4 	TooLittleTime 	0
scalar LocScenario.node[18].nic.mac1609_4 	TimesIntoBackoff 	2306
scalar LocScenario.node[18].nic.mac1609_4 	SlotsBackoff 	3543
scalar LocScenario.node[18].nic.mac1609_4 	NumInternalContention 	0
scalar LocScenario.node[18].nic.mac1609_4 	totalBusyTime 	1.764884094568
scalar LocScenario.node[18].veinsmobility 	startTime 	90.1
scalar LocScenario.node[18].veinsmobility 	totalTime 	228
scalar LocScenario.node[18].veinsmobility 	stopTime 	318.2
scalar LocScenario.node[18].veinsmobility 	minSpeed 	10.450010414235
scalar LocScenario.node[18].veinsmobility 	maxSpeed 	10.499985046685
scalar LocScenario.node[18].veinsmobility 	totalDistance 	2388.727948033
scalar LocScenario.node[18].veinsmobility 	totalCO2Emission 	393.52620147387
scalar LocScenario.node[25].appl 	generatedWSMs 	0
scalar LocScenario.node[25].appl 	receivedWSMs 	0
scalar LocScenario.node[25].appl 	generatedBSMs 	2040
scalar LocScenario.node[25].appl 	receivedBSMs 	14233
scalar LocScenario.node[25].appl 	generatedWSAs 	0
scalar LocScenario.node[25].appl 	receivedWSAs 	0
scalar LocScenario.node[25].appl 	rmseSUMGPS 	609368.11326942
scalar LocScenario.node[25].appl 	rmseSUMCP 	653200.37360107
scalar LocScenario.node[25].appl 	delaySum 	1.5971386674834
scalar LocScenario.node[25].nic.phy80211p 	busyTime 	0.0072881568627472
scalar LocScenario.node[25].nic.mac1609_4 	ReceivedUnicastPackets 	0
scalar LocScenario.node[25].nic.mac1609_4 	ReceivedBroadcasts 	14233
scalar LocScenario.node[25].nic.mac1609_4 	SentPackets 	2040
scalar LocScenario.node[25].nic.mac1609_4 	SNIRLostPackets 	63
scalar LocScenario.node[25].nic.mac1609_4 	RXTXLostPackets 	0
scalar LocScenario.node[25].nic.mac1609_4 	TotalLostPackets 	63
scalar LocScenario.node[25].nic.mac1609_4 	DroppedPacketsInMac 	0
scalar LocScenario.node[25].nic.mac1609_4 	TooLittleTime 	0
scalar LocScenario.node[25].nic.mac1609_4 	TimesIntoBackoff 	2040
scalar LocScenario.node[25].nic.mac1609_4 	SlotsBackoff 	3010
scalar LocScenario.node[25].nic.mac1609_4 	NumInternalContention 	0
scalar LocScenario.node[25].nic.mac1609_4 	totalBusyTime 	1.700984
scalar LocScenario.node[25].veinsmobility 	startTime 	120.1
scalar LocScenario.node[25].veinsmobility 	totalTime 	203.9
scalar LocScenario.node[25].veinsmobility 	stopTime 	324.1
scalar LocScenario.node[25].veinsmobility 	minSpeed 	10.450000389211
scalar LocScenario.node[25].veinsmobility 	maxSpeed 	10.499990373955
scalar LocScenario.node[25].veinsmobility 	totalDistance 	2138.7920100956
scalar LocScenario.node[25].veinsmobility 	totalCO2Emission 	352.29214956226
scalar LocScenario.node[20].appl 	generatedWSMs 	0
scalar LocScenario.node[20].appl 	receivedWSMs 	0
scalar LocScenario.node[20].appl 	generatedBSMs 	2281
scalar LocScenario.node[20].appl 	receivedBSMs 	14791
scalar LocScenario.node[20].appl 	generatedWSAs 	0
scalar LocScenario.node[20].appl 	receivedWSAs 	0
scalar LocScenario.node[20].appl 	rmseSUMGPS 	708878.93021505
scalar LocScenario.node[20].appl 	rmseSUMCP 	868185.26238075
scalar LocScenario.node[20].appl 	delaySum 	1.7141393844192
scalar LocScenario.node[20].nic.phy80211p 	busyTime 	0.0068828759316112
scalar LocScenario.node[20].nic.mac1609_4 	ReceivedUnicastPackets 	0
scalar LocScenario.node[20].nic.mac1609_4 	ReceivedBroadcasts 	14791
scalar LocScenario.node[20].nic.mac1609_4 	SentPackets 	2281
scalar LocScenario.node[20].nic.mac1609_4 	SNIRLostPackets 	305
scalar LocScenario.node[20].nic.mac1609_4 	RXTXLostPackets 	0
scalar LocScenario.node[20].nic.mac1609_4 	TotalLostPackets 	305
scalar LocScenario.node[20].nic.mac1609_4 	DroppedPacketsInMac 	0
scalar LocScenario.node[20].nic.mac1609_4 	TooLittleTime 	0
scalar LocScenario.node[20].nic.mac1609_4 	TimesIntoBackoff 	2281
scalar LocScenario.node[20].nic.mac1609_4 	SlotsBackoff 	3369
scalar LocScenario.node[20].nic.mac1609_4 	NumInternalContention 	0
scalar LocScenario.node[20].nic.mac1609_4 	totalBusyTime 	1.792225
scalar LocScenario.node[20].veinsmobility 	startTime 	100.1
scalar LocScenario.node[20].veinsmobility 	totalTime 	228
scalar LocScenario.node[20].veinsmobility 	stopTime 	328.2
scalar LocScenario.node[20].veinsmobility 	minSpeed 	10.45004479026
scalar LocScenario.node[20].veinsmobility 	maxSpeed 	10.499943255237
scalar LocScenario.node[20].veinsmobility 	totalDistance 	2388.6501449508
scalar LocScenario.node[20].veinsmobility 	totalCO2Emission 	394.1135626447
scalar LocScenario.node[27].appl 	generatedWSMs 	0
scalar LocScenario.node[27].appl 	receivedWSMs 	0
scalar LocScenario.node[27].appl 	generatedBSMs 	2040
scalar LocScenario.node[27].appl 	receivedBSMs 	14502
scalar LocScenario.node[27].appl 	generatedWSAs 	0
scalar LocScenario.node[27].appl 	receivedWSAs 	0
scalar LocScenario.node[27].appl 	rmseSUMGPS 	778141.98454413
scalar LocScenario.node[27].appl 	rmseSUMCP 	681639.96377398
scalar LocScenario.node[27].appl 	delaySum 	1.6253855622326
scalar LocScenario.node[27].nic.phy80211p 	busyTime 	0.0073987843137277
scalar LocScenario.node[27].nic.mac1609_4 	ReceivedUnicastPackets 	0
scalar LocScenario.node[27].nic.mac1609_4 	ReceivedBroadcasts 	14502
scalar LocScenario.node[27].nic.mac1609_4 	SentPackets 	2040
scalar LocScenario.node[27].nic.mac1609_4 	SNIRLostPackets 	11
scalar LocScenario.node[27].nic.mac1609_4 	RXTXLostPackets 	0
scalar LocScenario.node[27].nic.mac1609_4 	TotalLostPackets 	11
scalar LocScenario.node[27].nic.mac1609_4 	DroppedPacketsInMac 	0
scalar LocScenario.node[27].nic.mac1609_4 	TooLittleTime 	0
scalar LocScenario.node[27].nic.mac1609_4 	TimesIntoBackoff 	2040
scalar LocScenario.node[27].nic.mac1609_4 	SlotsBackoff 	3015
scalar LocScenario.node[27].nic.mac1609_4 	NumInternalContention 	0
scalar LocScenario.node[27].nic.mac1609_4 	totalBusyTime 	1.723552
scalar LocScenario.node[27].veinsmobility 	startTime 	130.1
scalar LocScenario.node[27].veinsmobility 	totalTime 	203.9
scalar LocScenario.node[27].veinsmobility 	stopTime 	334.1
scalar LocScenario.node[27].veinsmobility 	minSpeed 	10.450008506549
scalar LocScenario.node[27].veinsmobility 	maxSpeed 	10.499969693786
scalar LocScenario.node[27].veinsmobility 	totalDistance 	2138.8274178426
scalar LocScenario.node[27].veinsmobility 	totalCO2Emission 	352.42359954346
scalar LocScenario.node[22].appl 	generatedWSMs 	0
scalar LocScenario.node[22].appl 	receivedWSMs 	0
scalar LocScenario.node[22].appl 	generatedBSMs 	2281
scalar LocScenario.node[22].appl 	receivedBSMs 	14930
scalar LocScenario.node[22].appl 	generatedWSAs 	0
scalar LocScenario.node[22].appl 	receivedWSAs 	0
scalar LocScenario.node[22].appl 	rmseSUMGPS 	1068921.7096327
scalar LocScenario.node[22].appl 	rmseSUMCP 	718154.66190146
scalar LocScenario.node[22].appl 	delaySum 	-1.804978556566e+181
scalar LocScenario.node[22].nic.phy80211p 	busyTime 	0.0069840946953114
scalar LocScenario.node[22].nic.mac1609_4 	ReceivedUnicastPackets 	0
scalar LocScenario.node[22].nic.mac1609_4 	ReceivedBroadcasts 	14930
scalar LocScenario.node[22].nic.mac1609_4 	SentPackets 	2281
scalar LocScenario.node[22].nic.mac1609_4 	SNIRLostPackets 	388
scalar LocScenario.node[22].nic.mac1609_4 	RXTXLostPackets 	0
scalar LocScenario.node[22].nic.mac1609_4 	TotalLostPackets 	388
scalar LocScenario.node[22].nic.mac1609_4 	DroppedPacketsInMac 	0
scalar LocScenario.node[22].nic.mac1609_4 	TooLittleTime 	0
scalar LocScenario.node[22].nic.mac1609_4 	TimesIntoBackoff 	2281
scalar LocScenario.node[22].nic.mac1609_4 	SlotsBackoff 	3415
scalar LocScenario.node[22].nic.mac1609_4 	NumInternalContention 	0
scalar LocScenario.node[22].nic.mac1609_4 	totalBusyTime 	1.812401
scalar LocScenario.node[22].veinsmobility 	startTime 	110.1
scalar LocScenario.node[22].veinsmobility 	totalTime 	228
scalar LocScenario.node[22].veinsmobility 	stopTime 	338.2
scalar LocScenario.node[22].veinsmobility 	minSpeed 	10.450006966968
scalar LocScenario.node[22].veinsmobility 	maxSpeed 	10.499989036925
scalar LocScenario.node[22].veinsmobility 	totalDistance 	2388.7612801403
scalar LocScenario.node[22].veinsmobility 	totalCO2Emission 	393.64478318178
scalar LocScenario.node[29].appl 	generatedWSMs 	0
scalar LocScenario.node[29].appl 	receivedWSMs 	0
scalar LocScenario.node[29].appl 	generatedBSMs 	2040
scalar LocScenario.node[29].appl 	receivedBSMs 	14722
scalar LocScenario.node[29].appl 	generatedWSAs 	0
scalar LocScenario.node[29].appl 	receivedWSAs 	0
scalar LocScenario.node[29].appl 	rmseSUMGPS 	743279.47973539
scalar LocScenario.node[29].appl 	rmseSUMCP 	660124.69663586
scalar LocScenario.node[29].appl 	delaySum 	1.6486884846425
scalar LocScenario.node[29].nic.phy80211p 	busyTime 	0.0075053333333357
scalar LocScenario.node[29].nic.mac1609_4 	ReceivedUnicastPackets 	0
scalar LocScenario.node[29].nic.mac1609_4 	ReceivedBroadcasts 	14722
scalar LocScenario.node[29].nic.mac1609_4 	SentPackets 	2040
scalar LocScenario.node[29].nic.mac1609_4 	SNIRLostPackets 	0
scalar LocScenario.node[29].nic.mac1609_4 	RXTXLostPackets 	0
scalar LocScenario.node[29].nic.mac1609_4 	TotalLostPackets 	0
scalar LocScenario.node[29].nic.mac1609_4 	DroppedPacketsInMac 	0
scalar LocScenario.node[29].nic.mac1609_4 	TooLittleTime 	0
scalar LocScenario.node[29].nic.mac1609_4 	TimesIntoBackoff 	2040
scalar LocScenario.node[29].nic.mac1609_4 	SlotsBackoff 	3064
scalar LocScenario.node[29].nic.mac1609_4 	NumInternalContention 	0
scalar LocScenario.node[29].nic.mac1609_4 	totalBusyTime 	1.745288
scalar LocScenario.node[29].veinsmobility 	startTime 	140.1
scalar LocScenario.node[29].veinsmobility 	totalTime 	203.9
scalar LocScenario.node[29].veinsmobility 	stopTime 	344.1
scalar LocScenario.node[29].veinsmobility 	minSpeed 	10.450056442549
scalar LocScenario.node[29].veinsmobility 	maxSpeed 	10.499979001214
scalar LocScenario.node[29].veinsmobility 	totalDistance 	2138.6775544688
scalar LocScenario.node[29].veinsmobility 	totalCO2Emission 	351.69233228118
scalar LocScenario.node[24].appl 	generatedWSMs 	0
scalar LocScenario.node[24].appl 	receivedWSMs 	0
scalar LocScenario.node[24].appl 	generatedBSMs 	2281
scalar LocScenario.node[24].appl 	receivedBSMs 	15455
scalar LocScenario.node[24].appl 	generatedWSAs 	0
scalar LocScenario.node[24].appl 	receivedWSAs 	0
scalar LocScenario.node[24].appl 	rmseSUMGPS 	26656.916289353
scalar LocScenario.node[24].appl 	rmseSUMCP 	689769.97729472
scalar LocScenario.node[24].appl 	delaySum 	-3.45936056023e+238
scalar LocScenario.node[24].nic.phy80211p 	busyTime 	0.0070834896975036
scalar LocScenario.node[24].nic.mac1609_4 	ReceivedUnicastPackets 	0
scalar LocScenario.node[24].nic.mac1609_4 	ReceivedBroadcasts 	15455
scalar LocScenario.node[24].nic.mac1609_4 	SentPackets 	2281
scalar LocScenario.node[24].nic.mac1609_4 	SNIRLostPackets 	81
scalar LocScenario.node[24].nic.mac1609_4 	RXTXLostPackets 	0
scalar LocScenario.node[24].nic.mac1609_4 	TotalLostPackets 	81
scalar LocScenario.node[24].nic.mac1609_4 	DroppedPacketsInMac 	0
scalar LocScenario.node[24].nic.mac1609_4 	TooLittleTime 	0
scalar LocScenario.node[24].nic.mac1609_4 	TimesIntoBackoff 	2281
scalar LocScenario.node[24].nic.mac1609_4 	SlotsBackoff 	3391
scalar LocScenario.node[24].nic.mac1609_4 	NumInternalContention 	0
scalar LocScenario.node[24].nic.mac1609_4 	totalBusyTime 	1.854001
scalar LocScenario.node[24].veinsmobility 	startTime 	120.1
scalar LocScenario.node[24].veinsmobility 	totalTime 	228
scalar LocScenario.node[24].veinsmobility 	stopTime 	348.2
scalar LocScenario.node[24].veinsmobility 	minSpeed 	10.45003552594
scalar LocScenario.node[24].veinsmobility 	maxSpeed 	10.499989010079
scalar LocScenario.node[24].veinsmobility 	totalDistance 	2394.6605221165
scalar LocScenario.node[24].veinsmobility 	totalCO2Emission 	393.35524725293
scalar LocScenario.node[31].appl 	generatedWSMs 	0
scalar LocScenario.node[31].appl 	receivedWSMs 	0
scalar LocScenario.node[31].appl 	generatedBSMs 	2040
scalar LocScenario.node[31].appl 	receivedBSMs 	14929
scalar LocScenario.node[31].appl 	generatedWSAs 	0
scalar LocScenario.node[31].appl 	receivedWSAs 	0
scalar LocScenario.node[31].appl 	rmseSUMGPS 	684011.32402056
scalar LocScenario.node[31].appl 	rmseSUMCP 	666196.15536028
scalar LocScenario.node[31].appl 	delaySum 	1.6722972166654
scalar LocScenario.node[31].nic.phy80211p 	busyTime 	0.0076108627451005
scalar LocScenario.node[31].nic.mac1609_4 	ReceivedUnicastPackets 	0
scalar LocScenario.node[31].nic.mac1609_4 	ReceivedBroadcasts 	14929
scalar LocScenario.node[31].nic.mac1609_4 	SentPackets 	2040
scalar LocScenario.node[31].nic.mac1609_4 	SNIRLostPackets 	0
scalar LocScenario.node[31].nic.mac1609_4 	RXTXLostPackets 	0
scalar LocScenario.node[31].nic.mac1609_4 	TotalLostPackets 	0
scalar LocScenario.node[31].nic.mac1609_4 	DroppedPacketsInMac 	0
scalar LocScenario.node[31].nic.mac1609_4 	TooLittleTime 	0
scalar LocScenario.node[31].nic.mac1609_4 	TimesIntoBackoff 	2040
scalar LocScenario.node[31].nic.mac1609_4 	SlotsBackoff 	3001
scalar LocScenario.node[31].nic.mac1609_4 	NumInternalContention 	0
scalar LocScenario.node[31].nic.mac1609_4 	totalBusyTime 	1.766816
scalar LocScenario.node[31].veinsmobility 	startTime 	150.1
scalar LocScenario.node[31].veinsmobility 	totalTime 	203.9
scalar LocScenario.node[31].veinsmobility 	stopTime 	354.1
scalar LocScenario.node[31].veinsmobility 	minSpeed 	10.450003626372
scalar LocScenario.node[31].veinsmobility 	maxSpeed 	10.499998359825
scalar LocScenario.node[31].veinsmobility 	totalDistance 	2133.8219937542
scalar LocScenario.node[31].veinsmobility 	totalCO2Emission 	351.55153186405
scalar LocScenario.node[26].appl 	generatedWSMs 	0
scalar LocScenario.node[26].appl 	receivedWSMs 	0
scalar LocScenario.node[26].appl 	generatedBSMs 	2281
scalar LocScenario.node[26].appl 	receivedBSMs 	15722
scalar LocScenario.node[26].appl 	generatedWSAs 	0
scalar LocScenario.node[26].appl 	receivedWSAs 	0
scalar LocScenario.node[26].appl 	rmseSUMGPS 	70305.837542344
scalar LocScenario.node[26].appl 	rmseSUMCP 	643544.60681933
scalar LocScenario.node[26].appl 	delaySum 	1.8122423763949
scalar LocScenario.node[26].nic.phy80211p 	busyTime 	0.0071851644015808
scalar LocScenario.node[26].nic.mac1609_4 	ReceivedUnicastPackets 	0
scalar LocScenario.node[26].nic.mac1609_4 	ReceivedBroadcasts 	15722
scalar LocScenario.node[26].nic.mac1609_4 	SentPackets 	2281
scalar LocScenario.node[26].nic.mac1609_4 	SNIRLostPackets 	37
scalar LocScenario.node[26].nic.mac1609_4 	RXTXLostPackets 	0
scalar LocScenario.node[26].nic.mac1609_4 	TotalLostPackets 	37
scalar LocScenario.node[26].nic.mac1609_4 	DroppedPacketsInMac 	0
scalar LocScenario.node[26].nic.mac1609_4 	TooLittleTime 	0
scalar LocScenario.node[26].nic.mac1609_4 	TimesIntoBackoff 	2281
scalar LocScenario.node[26].nic.mac1609_4 	SlotsBackoff 	3394
scalar LocScenario.node[26].nic.mac1609_4 	NumInternalContention 	0
scalar LocScenario.node[26].nic.mac1609_4 	totalBusyTime 	1.876985
scalar LocScenario.node[26].veinsmobility 	startTime 	130.1
scalar LocScenario.node[26].veinsmobility 	totalTime 	228
scalar LocScenario.node[26].veinsmobility 	stopTime 	358.2
scalar LocScenario.node[26].veinsmobility 	minSpeed 	10.450087671354
scalar LocScenario.node[26].veinsmobility 	maxSpeed 	10.499985656643
scalar LocScenario.node[26].veinsmobility 	totalDistance 	2394.8383417959
scalar LocScenario.node[26].veinsmobility 	totalCO2Emission 	393.48212861479
scalar LocScenario.node[33].appl 	generatedWSMs 	0
scalar LocScenario.node[33].appl 	receivedWSMs 	0
scalar LocScenario.node[33].appl 	generatedBSMs 	2040
scalar LocScenario.node[33].appl 	receivedBSMs 	15113
scalar LocScenario.node[33].appl 	generatedWSAs 	0
scalar LocScenario.node[33].appl 	receivedWSAs 	0
scalar LocScenario.node[33].appl 	rmseSUMGPS 	782500.32143264
scalar LocScenario.node[33].appl 	rmseSUMCP 	645616.56080792
scalar LocScenario.node[33].appl 	delaySum 	1.692821467995
scalar LocScenario.node[33].nic.phy80211p 	busyTime 	0.007714352941179
scalar LocScenario.node[33].nic.mac1609_4 	ReceivedUnicastPackets 	0
scalar LocScenario.node[33].nic.mac1609_4 	ReceivedBroadcasts 	15113
scalar LocScenario.node[33].nic.mac1609_4 	SentPackets 	2040
scalar LocScenario.node[33].nic.mac1609_4 	SNIRLostPackets 	19
scalar LocScenario.node[33].nic.mac1609_4 	RXTXLostPackets 	0
scalar LocScenario.node[33].nic.mac1609_4 	TotalLostPackets 	19
scalar LocScenario.node[33].nic.mac1609_4 	DroppedPacketsInMac 	0
scalar LocScenario.node[33].nic.mac1609_4 	TooLittleTime 	0
scalar LocScenario.node[33].nic.mac1609_4 	TimesIntoBackoff 	2040
scalar LocScenario.node[33].nic.mac1609_4 	SlotsBackoff 	3155
scalar LocScenario.node[33].nic.mac1609_4 	NumInternalContention 	0
scalar LocScenario.node[33].nic.mac1609_4 	totalBusyTime 	1.787928
scalar LocScenario.node[33].veinsmobility 	startTime 	160.1
scalar LocScenario.node[33].veinsmobility 	totalTime 	203.9
scalar LocScenario.node[33].veinsmobility 	stopTime 	364.1
scalar LocScenario.node[33].veinsmobility 	minSpeed 	10.450006771903
scalar LocScenario.node[33].veinsmobility 	maxSpeed 	10.499971696048
scalar LocScenario.node[33].veinsmobility 	totalDistance 	2133.8258422663
scalar LocScenario.node[33].veinsmobility 	totalCO2Emission 	351.78373131414
scalar LocScenario.node[28].appl 	generatedWSMs 	0
scalar LocScenario.node[28].appl 	receivedWSMs 	0
scalar LocScenario.node[28].appl 	generatedBSMs 	2281
scalar LocScenario.node[28].appl 	receivedBSMs 	15920
scalar LocScenario.node[28].appl 	generatedWSAs 	0
scalar LocScenario.node[28].appl 	receivedWSAs 	0
scalar LocScenario.node[28].appl 	rmseSUMGPS 	57126.09890684
scalar LocScenario.node[28].appl 	rmseSUMCP 	669448.56685517
scalar LocScenario.node[28].appl 	delaySum 	1.8450576548014
scalar LocScenario.node[28].nic.phy80211p 	busyTime 	0.007286383165281
scalar LocScenario.node[28].nic.mac1609_4 	ReceivedUnicastPackets 	0
scalar LocScenario.node[28].nic.mac1609_4 	ReceivedBroadcasts 	15920
scalar LocScenario.node[28].nic.mac1609_4 	SentPackets 	2281
scalar LocScenario.node[28].nic.mac1609_4 	SNIRLostPackets 	61
scalar LocScenario.node[28].nic.mac1609_4 	RXTXLostPackets 	0
scalar LocScenario.node[28].nic.mac1609_4 	TotalLostPackets 	61
scalar LocScenario.node[28].nic.mac1609_4 	DroppedPacketsInMac 	0
scalar LocScenario.node[28].nic.mac1609_4 	TooLittleTime 	0
scalar LocScenario.node[28].nic.mac1609_4 	TimesIntoBackoff 	2281
scalar LocScenario.node[28].nic.mac1609_4 	SlotsBackoff 	3394
scalar LocScenario.node[28].nic.mac1609_4 	NumInternalContention 	0
scalar LocScenario.node[28].nic.mac1609_4 	totalBusyTime 	1.898201
scalar LocScenario.node[28].veinsmobility 	startTime 	140.1
scalar LocScenario.node[28].veinsmobility 	totalTime 	228
scalar LocScenario.node[28].veinsmobility 	stopTime 	368.2
scalar LocScenario.node[28].veinsmobility 	minSpeed 	10.450019570312
scalar LocScenario.node[28].veinsmobility 	maxSpeed 	10.499981539475
scalar LocScenario.node[28].veinsmobility 	totalDistance 	2392.1915061603
scalar LocScenario.node[28].veinsmobility 	totalCO2Emission 	393.54754952909
scalar LocScenario.node[35].appl 	generatedWSMs 	0
scalar LocScenario.node[35].appl 	receivedWSMs 	0
scalar LocScenario.node[35].appl 	generatedBSMs 	2040
scalar LocScenario.node[35].appl 	receivedBSMs 	15210
scalar LocScenario.node[35].appl 	generatedWSAs 	0
scalar LocScenario.node[35].appl 	receivedWSAs 	0
scalar LocScenario.node[35].appl 	rmseSUMGPS 	770845.13165987
scalar LocScenario.node[35].appl 	rmseSUMCP 	615282.71435683
scalar LocScenario.node[35].appl 	delaySum 	1.7310184551505
scalar LocScenario.node[35].nic.phy80211p 	busyTime 	0.0078193725490223
scalar LocScenario.node[35].nic.mac1609_4 	ReceivedUnicastPackets 	0
scalar LocScenario.node[35].nic.mac1609_4 	ReceivedBroadcasts 	15210
scalar LocScenario.node[35].nic.mac1609_4 	SentPackets 	2040
scalar LocScenario.node[35].nic.mac1609_4 	SNIRLostPackets 	128
scalar LocScenario.node[35].nic.mac1609_4 	RXTXLostPackets 	0
scalar LocScenario.node[35].nic.mac1609_4 	TotalLostPackets 	128
scalar LocScenario.node[35].nic.mac1609_4 	DroppedPacketsInMac 	0
scalar LocScenario.node[35].nic.mac1609_4 	TooLittleTime 	0
scalar LocScenario.node[35].nic.mac1609_4 	TimesIntoBackoff 	2040
scalar LocScenario.node[35].nic.mac1609_4 	SlotsBackoff 	3028
scalar LocScenario.node[35].nic.mac1609_4 	NumInternalContention 	0
scalar LocScenario.node[35].nic.mac1609_4 	totalBusyTime 	1.803216
scalar LocScenario.node[35].veinsmobility 	startTime 	170.1
scalar LocScenario.node[35].veinsmobility 	totalTime 	203.9
scalar LocScenario.node[35].veinsmobility 	stopTime 	374.1
scalar LocScenario.node[35].veinsmobility 	minSpeed 	10.450001388532
scalar LocScenario.node[35].veinsmobility 	maxSpeed 	10.499909209996
scalar LocScenario.node[35].veinsmobility 	totalDistance 	2133.889037634
scalar LocScenario.node[35].veinsmobility 	totalCO2Emission 	351.63061912679
scalar LocScenario.node[30].appl 	generatedWSMs 	0
scalar LocScenario.node[30].appl 	receivedWSMs 	0
scalar LocScenario.node[30].appl 	generatedBSMs 	2281
scalar LocScenario.node[30].appl 	receivedBSMs 	16048
scalar LocScenario.node[30].appl 	generatedWSAs 	0
scalar LocScenario.node[30].appl 	receivedWSAs 	0
scalar LocScenario.node[30].appl 	rmseSUMGPS 	799917.35746915
scalar LocScenario.node[30].appl 	rmseSUMCP 	677399.3218061
scalar LocScenario.node[30].appl 	delaySum 	1.8563387058705
scalar LocScenario.node[30].nic.phy80211p 	busyTime 	0.0073853222270961
scalar LocScenario.node[30].nic.mac1609_4 	ReceivedUnicastPackets 	0
scalar LocScenario.node[30].nic.mac1609_4 	ReceivedBroadcasts 	16048
scalar LocScenario.node[30].nic.mac1609_4 	SentPackets 	2281
scalar LocScenario.node[30].nic.mac1609_4 	SNIRLostPackets 	150
scalar LocScenario.node[30].nic.mac1609_4 	RXTXLostPackets 	0
scalar LocScenario.node[30].nic.mac1609_4 	TotalLostPackets 	150
scalar LocScenario.node[30].nic.mac1609_4 	DroppedPacketsInMac 	0
scalar LocScenario.node[30].nic.mac1609_4 	TooLittleTime 	0
scalar LocScenario.node[30].nic.mac1609_4 	TimesIntoBackoff 	2281
scalar LocScenario.node[30].nic.mac1609_4 	SlotsBackoff 	3471
scalar LocScenario.node[30].nic.mac1609_4 	NumInternalContention 	0
scalar LocScenario.node[30].nic.mac1609_4 	totalBusyTime 	1.914945
scalar LocScenario.node[30].veinsmobility 	startTime 	150.1
scalar LocScenario.node[30].veinsmobility 	totalTime 	228
scalar LocScenario.node[30].veinsmobility 	stopTime 	378.2
scalar LocScenario.node[30].veinsmobility 	minSpeed 	10.450046896096
scalar LocScenario.node[30].veinsmobility 	maxSpeed 	10.499995179405
scalar LocScenario.node[30].veinsmobility 	totalDistance 	2388.6101107004
scalar LocScenario.node[30].veinsmobility 	totalCO2Emission 	393.51929074797
scalar LocScenario.node[37].appl 	generatedWSMs 	0
scalar LocScenario.node[37].appl 	receivedWSMs 	0
scalar LocScenario.node[37].appl 	generatedBSMs 	2040
scalar LocScenario.node[37].appl 	receivedBSMs 	15422
scalar LocScenario.node[37].appl 	generatedWSAs 	0
scalar LocScenario.node[37].appl 	receivedWSAs 	0
scalar LocScenario.node[37].appl 	rmseSUMGPS 	766557.5734882
scalar LocScenario.node[37].appl 	rmseSUMCP 	657468.23738248
scalar LocScenario.node[37].appl 	delaySum 	1.75519581526
scalar LocScenario.node[37].nic.phy80211p 	busyTime 	0.0079157254901988
scalar LocScenario.node[37].nic.mac1609_4 	ReceivedUnicastPackets 	0
scalar LocScenario.node[37].nic.mac1609_4 	ReceivedBroadcasts 	15422
scalar LocScenario.node[37].nic.mac1609_4 	SentPackets 	2040
scalar LocScenario.node[37].nic.mac1609_4 	SNIRLostPackets 	105
scalar LocScenario.node[37].nic.mac1609_4 	RXTXLostPackets 	0
scalar LocScenario.node[37].nic.mac1609_4 	TotalLostPackets 	105
scalar LocScenario.node[37].nic.mac1609_4 	DroppedPacketsInMac 	0
scalar LocScenario.node[37].nic.mac1609_4 	TooLittleTime 	0
scalar LocScenario.node[37].nic.mac1609_4 	TimesIntoBackoff 	2040
scalar LocScenario.node[37].nic.mac1609_4 	SlotsBackoff 	3092
scalar LocScenario.node[37].nic.mac1609_4 	NumInternalContention 	0
scalar LocScenario.node[37].nic.mac1609_4 	totalBusyTime 	1.8236
scalar LocScenario.node[37].veinsmobility 	startTime 	180.1
scalar LocScenario.node[37].veinsmobility 	totalTime 	203.9
scalar LocScenario.node[37].veinsmobility 	stopTime 	384.1
scalar LocScenario.node[37].veinsmobility 	minSpeed 	10.45005546778
scalar LocScenario.node[37].veinsmobility 	maxSpeed 	10.499950813653
scalar LocScenario.node[37].veinsmobility 	totalDistance 	2133.8178823917
scalar LocScenario.node[37].veinsmobility 	totalCO2Emission 	351.59268173144
scalar LocScenario.node[32].appl 	generatedWSMs 	0
scalar LocScenario.node[32].appl 	receivedWSMs 	0
scalar LocScenario.node[32].appl 	generatedBSMs 	2281
scalar LocScenario.node[32].appl 	receivedBSMs 	16271
scalar LocScenario.node[32].appl 	generatedWSAs 	0
scalar LocScenario.node[32].appl 	receivedWSAs 	0
scalar LocScenario.node[32].appl 	rmseSUMGPS 	633342.68933594
scalar LocScenario.node[32].appl 	rmseSUMCP 	687849.65686656
scalar LocScenario.node[32].appl 	delaySum 	1.873561562237
scalar LocScenario.node[32].nic.phy80211p 	busyTime 	0.0074838053485342
scalar LocScenario.node[32].nic.mac1609_4 	ReceivedUnicastPackets 	0
scalar LocScenario.node[32].nic.mac1609_4 	ReceivedBroadcasts 	16271
scalar LocScenario.node[32].nic.mac1609_4 	SentPackets 	2281
scalar LocScenario.node[32].nic.mac1609_4 	SNIRLostPackets 	143
scalar LocScenario.node[32].nic.mac1609_4 	RXTXLostPackets 	0
scalar LocScenario.node[32].nic.mac1609_4 	TotalLostPackets 	143
scalar LocScenario.node[32].nic.mac1609_4 	DroppedPacketsInMac 	0
scalar LocScenario.node[32].nic.mac1609_4 	TooLittleTime 	0
scalar LocScenario.node[32].nic.mac1609_4 	TimesIntoBackoff 	2281
scalar LocScenario.node[32].nic.mac1609_4 	SlotsBackoff 	3417
scalar LocScenario.node[32].nic.mac1609_4 	NumInternalContention 	0
scalar LocScenario.node[32].nic.mac1609_4 	totalBusyTime 	1.938821910171
scalar LocScenario.node[32].veinsmobility 	startTime 	160.1
scalar LocScenario.node[32].veinsmobility 	totalTime 	228
scalar LocScenario.node[32].veinsmobility 	stopTime 	388.2
scalar LocScenario.node[32].veinsmobility 	minSpeed 	10.450001062674
scalar LocScenario.node[32].veinsmobility 	maxSpeed 	10.499937891576
scalar LocScenario.node[32].veinsmobility 	totalDistance 	2388.7319818169
scalar LocScenario.node[32].veinsmobility 	totalCO2Emission 	393.62931688174
scalar LocScenario.node[39].appl 	generatedWSMs 	0
scalar LocScenario.node[39].appl 	receivedWSMs 	0
scalar LocScenario.node[39].appl 	generatedBSMs 	2040
scalar LocScenario.node[39].appl 	receivedBSMs 	15685
scalar LocScenario.node[39].appl 	generatedWSAs 	0
scalar LocScenario.node[39].appl 	receivedWSAs 	0
scalar LocScenario.node[39].appl 	rmseSUMGPS 	921950.44047722
scalar LocScenario.node[39].appl 	rmseSUMCP 	637691.80359486
scalar LocScenario.node[39].appl 	delaySum 	1.7572658505387
scalar LocScenario.node[39].nic.phy80211p 	busyTime 	0.0079962745098067
scalar LocScenario.node[39].nic.mac1609_4 	ReceivedUnicastPackets 	0
scalar LocScenario.node[39].nic.mac1609_4 	ReceivedBroadcasts 	15685
scalar LocScenario.node[39].nic.mac1609_4 	SentPackets 	2040
scalar LocScenario.node[39].nic.mac1609_4 	SNIRLostPackets 	0
scalar LocScenario.node[39].nic.mac1609_4 	RXTXLostPackets 	0
scalar LocScenario.node[39].nic.mac1609_4 	TotalLostPackets 	0
scalar LocScenario.node[39].nic.mac1609_4 	DroppedPacketsInMac 	0
scalar LocScenario.node[39].nic.mac1609_4 	TooLittleTime 	0
scalar LocScenario.node[39].nic.mac1609_4 	TimesIntoBackoff 	2260
scalar LocScenario.node[39].nic.mac1609_4 	SlotsBackoff 	3434
scalar LocScenario.node[39].nic.mac1609_4 	NumInternalContention 	0
scalar LocScenario.node[39].nic.mac1609_4 	totalBusyTime 	1.84544
scalar LocScenario.node[39].veinsmobility 	startTime 	190.1
scalar LocScenario.node[39].veinsmobility 	totalTime 	203.9
scalar LocScenario.node[39].veinsmobility 	stopTime 	394.1
scalar LocScenario.node[39].veinsmobility 	minSpeed 	10.450048154162
scalar LocScenario.node[39].veinsmobility 	maxSpeed 	10.499979077221
scalar LocScenario.node[39].veinsmobility 	totalDistance 	2138.767212302
scalar LocScenario.node[39].veinsmobility 	totalCO2Emission 	351.54732890021
scalar LocScenario.node[34].appl 	generatedWSMs 	0
scalar LocScenario.node[34].appl 	receivedWSMs 	0
scalar LocScenario.node[34].appl 	generatedBSMs 	2281
scalar LocScenario.node[34].appl 	receivedBSMs 	16543
scalar LocScenario.node[34].appl 	generatedWSAs 	0
scalar LocScenario.node[34].appl 	receivedWSAs 	0
scalar LocScenario.node[34].appl 	rmseSUMGPS 	448956.53456563
scalar LocScenario.node[34].appl 	rmseSUMCP 	648566.40207959
scalar LocScenario.node[34].appl 	delaySum 	1.9121589953745
scalar LocScenario.node[34].nic.phy80211p 	busyTime 	0.0075836562911034
scalar LocScenario.node[34].nic.mac1609_4 	ReceivedUnicastPackets 	0
scalar LocScenario.node[34].nic.mac1609_4 	ReceivedBroadcasts 	16543
scalar LocScenario.node[34].nic.mac1609_4 	SentPackets 	2281
scalar LocScenario.node[34].nic.mac1609_4 	SNIRLostPackets 	90
scalar LocScenario.node[34].nic.mac1609_4 	RXTXLostPackets 	0
scalar LocScenario.node[34].nic.mac1609_4 	TotalLostPackets 	90
scalar LocScenario.node[34].nic.mac1609_4 	DroppedPacketsInMac 	0
scalar LocScenario.node[34].nic.mac1609_4 	TooLittleTime 	0
scalar LocScenario.node[34].nic.mac1609_4 	TimesIntoBackoff 	2281
scalar LocScenario.node[34].nic.mac1609_4 	SlotsBackoff 	3416
scalar LocScenario.node[34].nic.mac1609_4 	NumInternalContention 	0
scalar LocScenario.node[34].nic.mac1609_4 	totalBusyTime 	1.966483232444
scalar LocScenario.node[34].veinsmobility 	startTime 	170.1
scalar LocScenario.node[34].veinsmobility 	totalTime 	228
scalar LocScenario.node[34].veinsmobility 	stopTime 	398.2
scalar LocScenario.node[34].veinsmobility 	minSpeed 	10.450012573192
scalar LocScenario.node[34].veinsmobility 	maxSpeed 	10.499993322149
scalar LocScenario.node[34].veinsmobility 	totalDistance 	2392.303124445
scalar LocScenario.node[34].veinsmobility 	totalCO2Emission 	392.86840619523
scalar LocScenario.node[41].appl 	generatedWSMs 	0
scalar LocScenario.node[41].appl 	receivedWSMs 	0
scalar LocScenario.node[41].appl 	generatedBSMs 	2040
scalar LocScenario.node[41].appl 	receivedBSMs 	15723
scalar LocScenario.node[41].appl 	generatedWSAs 	0
scalar LocScenario.node[41].appl 	receivedWSAs 	0
scalar LocScenario.node[41].appl 	rmseSUMGPS 	1057332.0231077
scalar LocScenario.node[41].appl 	rmseSUMCP 	662760.32212812
scalar LocScenario.node[41].appl 	delaySum 	1.7887590699976
scalar LocScenario.node[41].nic.phy80211p 	busyTime 	0.0080666274509833
scalar LocScenario.node[41].nic.mac1609_4 	ReceivedUnicastPackets 	0
scalar LocScenario.node[41].nic.mac1609_4 	ReceivedBroadcasts 	15723
scalar LocScenario.node[41].nic.mac1609_4 	SentPackets 	2040
scalar LocScenario.node[41].nic.mac1609_4 	SNIRLostPackets 	100
scalar LocScenario.node[41].nic.mac1609_4 	RXTXLostPackets 	0
scalar LocScenario.node[41].nic.mac1609_4 	TotalLostPackets 	100
scalar LocScenario.node[41].nic.mac1609_4 	DroppedPacketsInMac 	0
scalar LocScenario.node[41].nic.mac1609_4 	TooLittleTime 	0
scalar LocScenario.node[41].nic.mac1609_4 	TimesIntoBackoff 	2040
scalar LocScenario.node[41].nic.mac1609_4 	SlotsBackoff 	3020
scalar LocScenario.node[41].nic.mac1609_4 	NumInternalContention 	0
scalar LocScenario.node[41].nic.mac1609_4 	totalBusyTime 	1.854592
scalar LocScenario.node[41].veinsmobility 	startTime 	200.1
scalar LocScenario.node[41].veinsmobility 	totalTime 	203.9
scalar LocScenario.node[41].veinsmobility 	stopTime 	404.1
scalar LocScenario.node[41].veinsmobility 	minSpeed 	10.450002003496
scalar LocScenario.node[41].veinsmobility 	maxSpeed 	10.499964752188
scalar LocScenario.node[41].veinsmobility 	totalDistance 	2138.7690939412
scalar LocScenario.node[41].veinsmobility 	totalCO2Emission 	352.02756807452
scalar LocScenario.node[36].appl 	generatedWSMs 	0
scalar LocScenario.node[36].appl 	receivedWSMs 	0
scalar LocScenario.node[36].appl 	generatedBSMs 	2281
scalar LocScenario.node[36].appl 	receivedBSMs 	16575
scalar LocScenario.node[36].appl 	generatedWSAs 	0
scalar LocScenario.node[36].appl 	receivedWSAs 	0
scalar LocScenario.node[36].appl 	rmseSUMGPS 	21879.409554828
scalar LocScenario.node[36].appl 	rmseSUMCP 	659464.44720163
scalar LocScenario.node[36].appl 	delaySum 	1.9253021050299
scalar LocScenario.node[36].nic.phy80211p 	busyTime 	0.0076807715914103
scalar LocScenario.node[36].nic.mac1609_4 	ReceivedUnicastPackets 	0
scalar LocScenario.node[36].nic.mac1609_4 	ReceivedBroadcasts 	16575
scalar LocScenario.node[36].nic.mac1609_4 	SentPackets 	2281
scalar LocScenario.node[36].nic.mac1609_4 	SNIRLostPackets 	271
scalar LocScenario.node[36].nic.mac1609_4 	RXTXLostPackets 	0
scalar LocScenario.node[36].nic.mac1609_4 	TotalLostPackets 	271
scalar LocScenario.node[36].nic.mac1609_4 	DroppedPacketsInMac 	0
scalar LocScenario.node[36].nic.mac1609_4 	TooLittleTime 	0
scalar LocScenario.node[36].nic.mac1609_4 	TimesIntoBackoff 	2281
scalar LocScenario.node[36].nic.mac1609_4 	SlotsBackoff 	3441
scalar LocScenario.node[36].nic.mac1609_4 	NumInternalContention 	0
scalar LocScenario.node[36].nic.mac1609_4 	totalBusyTime 	1.981505
scalar LocScenario.node[36].veinsmobility 	startTime 	180.1
scalar LocScenario.node[36].veinsmobility 	totalTime 	228
scalar LocScenario.node[36].veinsmobility 	stopTime 	408.2
scalar LocScenario.node[36].veinsmobility 	minSpeed 	10.450010501838
scalar LocScenario.node[36].veinsmobility 	maxSpeed 	10.499980131036
scalar LocScenario.node[36].veinsmobility 	totalDistance 	2394.6864325708
scalar LocScenario.node[36].veinsmobility 	totalCO2Emission 	393.29878945382
scalar LocScenario.node[43].appl 	generatedWSMs 	0
scalar LocScenario.node[43].appl 	receivedWSMs 	0
scalar LocScenario.node[43].appl 	generatedBSMs 	2040
scalar LocScenario.node[43].appl 	receivedBSMs 	15696
scalar LocScenario.node[43].appl 	generatedWSAs 	0
scalar LocScenario.node[43].appl 	receivedWSAs 	0
scalar LocScenario.node[43].appl 	rmseSUMGPS 	326533.71998717
scalar LocScenario.node[43].appl 	rmseSUMCP 	623244.77362563
scalar LocScenario.node[43].appl 	delaySum 	1.7710862404067
scalar LocScenario.node[43].nic.phy80211p 	busyTime 	0.0081109803921598
scalar LocScenario.node[43].nic.mac1609_4 	ReceivedUnicastPackets 	0
scalar LocScenario.node[43].nic.mac1609_4 	ReceivedBroadcasts 	15696
scalar LocScenario.node[43].nic.mac1609_4 	SentPackets 	2040
scalar LocScenario.node[43].nic.mac1609_4 	SNIRLostPackets 	214
scalar LocScenario.node[43].nic.mac1609_4 	RXTXLostPackets 	0
scalar LocScenario.node[43].nic.mac1609_4 	TotalLostPackets 	214
scalar LocScenario.node[43].nic.mac1609_4 	DroppedPacketsInMac 	0
scalar LocScenario.node[43].nic.mac1609_4 	TooLittleTime 	0
scalar LocScenario.node[43].nic.mac1609_4 	TimesIntoBackoff 	2040
scalar LocScenario.node[43].nic.mac1609_4 	SlotsBackoff 	2950
scalar LocScenario.node[43].nic.mac1609_4 	NumInternalContention 	0
scalar LocScenario.node[43].nic.mac1609_4 	totalBusyTime 	1.858648
scalar LocScenario.node[43].veinsmobility 	startTime 	210.1
scalar LocScenario.node[43].veinsmobility 	totalTime 	203.9
scalar LocScenario.node[43].veinsmobility 	stopTime 	414.1
scalar LocScenario.node[43].veinsmobility 	minSpeed 	10.450007447752
scalar LocScenario.node[43].veinsmobility 	maxSpeed 	10.499972083303
scalar LocScenario.node[43].veinsmobility 	totalDistance 	2133.7288703544
scalar LocScenario.node[43].veinsmobility 	totalCO2Emission 	351.93291930383
scalar LocScenario.node[38].appl 	generatedWSMs 	0
scalar LocScenario.node[38].appl 	receivedWSMs 	0
scalar LocScenario.node[38].appl 	generatedBSMs 	2281
scalar LocScenario.node[38].appl 	receivedBSMs 	16906
scalar LocScenario.node[38].appl 	generatedWSAs 	0
scalar LocScenario.node[38].appl 	receivedWSAs 	0
scalar LocScenario.node[38].appl 	rmseSUMGPS 	876935.59024827
scalar LocScenario.node[38].appl 	rmseSUMCP 	686537.59727812
scalar LocScenario.node[38].appl 	delaySum 	1.9659836855956
scalar LocScenario.node[38].nic.phy80211p 	busyTime 	0.0077423235423091
scalar LocScenario.node[38].nic.mac1609_4 	ReceivedUnicastPackets 	0
scalar LocScenario.node[38].nic.mac1609_4 	ReceivedBroadcasts 	16906
scalar LocScenario.node[38].nic.mac1609_4 	SentPackets 	2281
scalar LocScenario.node[38].nic.mac1609_4 	SNIRLostPackets 	75
scalar LocScenario.node[38].nic.mac1609_4 	RXTXLostPackets 	0
scalar LocScenario.node[38].nic.mac1609_4 	TotalLostPackets 	75
scalar LocScenario.node[38].nic.mac1609_4 	DroppedPacketsInMac 	0
scalar LocScenario.node[38].nic.mac1609_4 	TooLittleTime 	0
scalar LocScenario.node[38].nic.mac1609_4 	TimesIntoBackoff 	2281
scalar LocScenario.node[38].nic.mac1609_4 	SlotsBackoff 	3513
scalar LocScenario.node[38].nic.mac1609_4 	NumInternalContention 	0
scalar LocScenario.node[38].nic.mac1609_4 	totalBusyTime 	2.000537
scalar LocScenario.node[38].veinsmobility 	startTime 	190.1
scalar LocScenario.node[38].veinsmobility 	totalTime 	228
scalar LocScenario.node[38].veinsmobility 	stopTime 	418.2
scalar LocScenario.node[38].veinsmobility 	minSpeed 	10.45002436178
scalar LocScenario.node[38].veinsmobility 	maxSpeed 	10.49999396964
scalar LocScenario.node[38].veinsmobility 	totalDistance 	2388.7543626239
scalar LocScenario.node[38].veinsmobility 	totalCO2Emission 	392.93792427926
scalar LocScenario.node[45].appl 	generatedWSMs 	0
scalar LocScenario.node[45].appl 	receivedWSMs 	0
scalar LocScenario.node[45].appl 	generatedBSMs 	2040
scalar LocScenario.node[45].appl 	receivedBSMs 	15933
scalar LocScenario.node[45].appl 	generatedWSAs 	0
scalar LocScenario.node[45].appl 	receivedWSAs 	0
scalar LocScenario.node[45].appl 	rmseSUMGPS 	650968.14358459
scalar LocScenario.node[45].appl 	rmseSUMCP 	623818.3538253
scalar LocScenario.node[45].appl 	delaySum 	1.7846009465018
scalar LocScenario.node[45].nic.phy80211p 	busyTime 	0.0081354509803951
scalar LocScenario.node[45].nic.mac1609_4 	ReceivedUnicastPackets 	0
scalar LocScenario.node[45].nic.mac1609_4 	ReceivedBroadcasts 	15933
scalar LocScenario.node[45].nic.mac1609_4 	SentPackets 	2040
scalar LocScenario.node[45].nic.mac1609_4 	SNIRLostPackets 	25
scalar LocScenario.node[45].nic.mac1609_4 	RXTXLostPackets 	0
scalar LocScenario.node[45].nic.mac1609_4 	TotalLostPackets 	25
scalar LocScenario.node[45].nic.mac1609_4 	DroppedPacketsInMac 	0
[...]
scalar LocScenario.node[283].veinsmobility 	stopTime 	1510.3903596053
scalar LocScenario.node[283].veinsmobility 	minSpeed 	10.450182399515
scalar LocScenario.node[283].veinsmobility 	maxSpeed 	10.499999182404
scalar LocScenario.node[283].veinsmobility 	totalDistance 	1047.8145670671
scalar LocScenario.node[283].veinsmobility 	totalCO2Emission 	172.75773333461
scalar LocScenario.node[285].appl 	generatedWSMs 	0
scalar LocScenario.node[285].appl 	receivedWSMs 	0
scalar LocScenario.node[285].appl 	generatedBSMs 	903
scalar LocScenario.node[285].appl 	receivedBSMs 	6967
scalar LocScenario.node[285].appl 	generatedWSAs 	0
scalar LocScenario.node[285].appl 	receivedWSAs 	0
scalar LocScenario.node[285].appl 	rmseSUMGPS 	215425.51399157
scalar LocScenario.node[285].appl 	rmseSUMCP 	200348.44398185
scalar LocScenario.node[285].appl 	delaySum 	10.0068063731
scalar LocScenario.node[285].nic.phy80211p 	busyTime 	0.0080755465277523
scalar LocScenario.node[285].nic.mac1609_4 	ReceivedUnicastPackets 	0
scalar LocScenario.node[285].nic.mac1609_4 	ReceivedBroadcasts 	6967
scalar LocScenario.node[285].nic.mac1609_4 	SentPackets 	903
scalar LocScenario.node[285].nic.mac1609_4 	SNIRLostPackets 	44
scalar LocScenario.node[285].nic.mac1609_4 	RXTXLostPackets 	0
scalar LocScenario.node[285].nic.mac1609_4 	TotalLostPackets 	44
scalar LocScenario.node[285].nic.mac1609_4 	DroppedPacketsInMac 	0
scalar LocScenario.node[285].nic.mac1609_4 	TooLittleTime 	0
scalar LocScenario.node[285].nic.mac1609_4 	TimesIntoBackoff 	903
scalar LocScenario.node[285].nic.mac1609_4 	SlotsBackoff 	1365
scalar LocScenario.node[285].nic.mac1609_4 	NumInternalContention 	0
scalar LocScenario.node[285].nic.mac1609_4 	totalBusyTime 	0.821671
scalar LocScenario.node[285].veinsmobility 	startTime 	1420.1
scalar LocScenario.node[285].veinsmobility 	totalTime 	90.2
scalar LocScenario.node[285].veinsmobility 	stopTime 	1510.3903596053
scalar LocScenario.node[285].veinsmobility 	minSpeed 	10.450005789357
scalar LocScenario.node[285].veinsmobility 	maxSpeed 	10.499920668418
scalar LocScenario.node[285].veinsmobility 	totalDistance 	948.0701277739
scalar LocScenario.node[285].veinsmobility 	totalCO2Emission 	155.47838008815
scalar LocScenario.node[287].appl 	generatedWSMs 	0
scalar LocScenario.node[287].appl 	receivedWSMs 	0
scalar LocScenario.node[287].appl 	generatedBSMs 	803
scalar LocScenario.node[287].appl 	receivedBSMs 	6180
scalar LocScenario.node[287].appl 	generatedWSAs 	0
scalar LocScenario.node[287].appl 	receivedWSAs 	0
scalar LocScenario.node[287].appl 	rmseSUMGPS 	90856.0724415
scalar LocScenario.node[287].appl 	rmseSUMCP 	163614.14152274
scalar LocScenario.node[287].appl 	delaySum 	4.4303601454485
scalar LocScenario.node[287].nic.phy80211p 	busyTime 	0.0080049460876703
scalar LocScenario.node[287].nic.mac1609_4 	ReceivedUnicastPackets 	0
scalar LocScenario.node[287].nic.mac1609_4 	ReceivedBroadcasts 	6180
scalar LocScenario.node[287].nic.mac1609_4 	SentPackets 	803
scalar LocScenario.node[287].nic.mac1609_4 	SNIRLostPackets 	0
scalar LocScenario.node[287].nic.mac1609_4 	RXTXLostPackets 	10
scalar LocScenario.node[287].nic.mac1609_4 	TotalLostPackets 	10
scalar LocScenario.node[287].nic.mac1609_4 	DroppedPacketsInMac 	0
scalar LocScenario.node[287].nic.mac1609_4 	TooLittleTime 	0
scalar LocScenario.node[287].nic.mac1609_4 	TimesIntoBackoff 	929
scalar LocScenario.node[287].nic.mac1609_4 	SlotsBackoff 	1415
scalar LocScenario.node[287].nic.mac1609_4 	NumInternalContention 	0
scalar LocScenario.node[287].nic.mac1609_4 	totalBusyTime 	0.727035
scalar LocScenario.node[287].veinsmobility 	startTime 	1430.1
scalar LocScenario.node[287].veinsmobility 	totalTime 	80.2
scalar LocScenario.node[287].veinsmobility 	stopTime 	1510.3903596053
scalar LocScenario.node[287].veinsmobility 	minSpeed 	10.450042881095
scalar LocScenario.node[287].veinsmobility 	maxSpeed 	10.49992281195
scalar LocScenario.node[287].veinsmobility 	totalDistance 	838.54383237275
scalar LocScenario.node[287].veinsmobility 	totalCO2Emission 	138.32853441116
scalar LocScenario.node[289].appl 	generatedWSMs 	0
scalar LocScenario.node[289].appl 	receivedWSMs 	0
scalar LocScenario.node[289].appl 	generatedBSMs 	703
scalar LocScenario.node[289].appl 	receivedBSMs 	5221
scalar LocScenario.node[289].appl 	generatedWSAs 	0
scalar LocScenario.node[289].appl 	receivedWSAs 	0
scalar LocScenario.node[289].appl 	rmseSUMGPS 	12211.605267098
scalar LocScenario.node[289].appl 	rmseSUMCP 	130480.42384991
scalar LocScenario.node[289].appl 	delaySum 	4.3494149059277
scalar LocScenario.node[289].nic.phy80211p 	busyTime 	0.0078876250329823
scalar LocScenario.node[289].nic.mac1609_4 	ReceivedUnicastPackets 	0
scalar LocScenario.node[289].nic.mac1609_4 	ReceivedBroadcasts 	5221
scalar LocScenario.node[289].nic.mac1609_4 	SentPackets 	703
scalar LocScenario.node[289].nic.mac1609_4 	SNIRLostPackets 	110
scalar LocScenario.node[289].nic.mac1609_4 	RXTXLostPackets 	0
scalar LocScenario.node[289].nic.mac1609_4 	TotalLostPackets 	110
scalar LocScenario.node[289].nic.mac1609_4 	DroppedPacketsInMac 	0
scalar LocScenario.node[289].nic.mac1609_4 	TooLittleTime 	0
scalar LocScenario.node[289].nic.mac1609_4 	TimesIntoBackoff 	703
scalar LocScenario.node[289].nic.mac1609_4 	SlotsBackoff 	1151
scalar LocScenario.node[289].nic.mac1609_4 	NumInternalContention 	0
scalar LocScenario.node[289].nic.mac1609_4 	totalBusyTime 	0.622519
scalar LocScenario.node[289].veinsmobility 	startTime 	1440.1
scalar LocScenario.node[289].veinsmobility 	totalTime 	70.2
scalar LocScenario.node[289].veinsmobility 	stopTime 	1510.3903596053
scalar LocScenario.node[289].veinsmobility 	minSpeed 	10.450203413842
scalar LocScenario.node[289].veinsmobility 	maxSpeed 	10.499902571808
scalar LocScenario.node[289].veinsmobility 	totalDistance 	733.7760736162
scalar LocScenario.node[289].veinsmobility 	totalCO2Emission 	121.23362897643
scalar LocScenario.node[291].appl 	generatedWSMs 	0
scalar LocScenario.node[291].appl 	receivedWSMs 	0
scalar LocScenario.node[291].appl 	generatedBSMs 	603
scalar LocScenario.node[291].appl 	receivedBSMs 	4310
scalar LocScenario.node[291].appl 	generatedWSAs 	0
scalar LocScenario.node[291].appl 	receivedWSAs 	0
scalar LocScenario.node[291].appl 	rmseSUMGPS 	5512.07624961
scalar LocScenario.node[291].appl 	rmseSUMCP 	85403.149525386
scalar LocScenario.node[291].appl 	delaySum 	4.2397113937833
scalar LocScenario.node[291].nic.phy80211p 	busyTime 	0.0077676099971202
scalar LocScenario.node[291].nic.mac1609_4 	ReceivedUnicastPackets 	0
scalar LocScenario.node[291].nic.mac1609_4 	ReceivedBroadcasts 	4310
scalar LocScenario.node[291].nic.mac1609_4 	SentPackets 	603
scalar LocScenario.node[291].nic.mac1609_4 	SNIRLostPackets 	193
scalar LocScenario.node[291].nic.mac1609_4 	RXTXLostPackets 	0
scalar LocScenario.node[291].nic.mac1609_4 	TotalLostPackets 	193
scalar LocScenario.node[291].nic.mac1609_4 	DroppedPacketsInMac 	0
scalar LocScenario.node[291].nic.mac1609_4 	TooLittleTime 	0
scalar LocScenario.node[291].nic.mac1609_4 	TimesIntoBackoff 	603
scalar LocScenario.node[291].nic.mac1609_4 	SlotsBackoff 	899
scalar LocScenario.node[291].nic.mac1609_4 	NumInternalContention 	0
scalar LocScenario.node[291].nic.mac1609_4 	totalBusyTime 	0.521955
scalar LocScenario.node[291].veinsmobility 	startTime 	1450.1
scalar LocScenario.node[291].veinsmobility 	totalTime 	60.2
scalar LocScenario.node[291].veinsmobility 	stopTime 	1510.3903596053
scalar LocScenario.node[291].veinsmobility 	minSpeed 	10.450228889706
scalar LocScenario.node[291].veinsmobility 	maxSpeed 	10.499997870496
scalar LocScenario.node[291].veinsmobility 	totalDistance 	629.11288461357
scalar LocScenario.node[291].veinsmobility 	totalCO2Emission 	103.74600517772
scalar LocScenario.node[293].appl 	generatedWSMs 	0
scalar LocScenario.node[293].appl 	receivedWSMs 	0
scalar LocScenario.node[293].appl 	generatedBSMs 	503
scalar LocScenario.node[293].appl 	receivedBSMs 	3630
scalar LocScenario.node[293].appl 	generatedWSAs 	0
scalar LocScenario.node[293].appl 	receivedWSAs 	0
scalar LocScenario.node[293].appl 	rmseSUMGPS 	4555.8032320856
scalar LocScenario.node[293].appl 	rmseSUMCP 	55675.569027229
scalar LocScenario.node[293].appl 	delaySum 	4.1358621710851
scalar LocScenario.node[293].nic.phy80211p 	busyTime 	0.0075605742926529
scalar LocScenario.node[293].nic.mac1609_4 	ReceivedUnicastPackets 	0
scalar LocScenario.node[293].nic.mac1609_4 	ReceivedBroadcasts 	3630
scalar LocScenario.node[293].nic.mac1609_4 	SentPackets 	503
scalar LocScenario.node[293].nic.mac1609_4 	SNIRLostPackets 	26
scalar LocScenario.node[293].nic.mac1609_4 	RXTXLostPackets 	0
scalar LocScenario.node[293].nic.mac1609_4 	TotalLostPackets 	26
scalar LocScenario.node[293].nic.mac1609_4 	DroppedPacketsInMac 	0
scalar LocScenario.node[293].nic.mac1609_4 	TooLittleTime 	0
scalar LocScenario.node[293].nic.mac1609_4 	TimesIntoBackoff 	503
scalar LocScenario.node[293].nic.mac1609_4 	SlotsBackoff 	739
scalar LocScenario.node[293].nic.mac1609_4 	NumInternalContention 	0
scalar LocScenario.node[293].nic.mac1609_4 	totalBusyTime 	0.433039
scalar LocScenario.node[293].veinsmobility 	startTime 	1460.1
scalar LocScenario.node[293].veinsmobility 	totalTime 	50.2
scalar LocScenario.node[293].veinsmobility 	stopTime 	1510.3903596053
scalar LocScenario.node[293].veinsmobility 	minSpeed 	10.450045480242
scalar LocScenario.node[293].veinsmobility 	maxSpeed 	10.499979647784
scalar LocScenario.node[293].veinsmobility 	totalDistance 	524.44943668177
scalar LocScenario.node[293].veinsmobility 	totalCO2Emission 	86.317162340122
scalar LocScenario.node[295].appl 	generatedWSMs 	0
scalar LocScenario.node[295].appl 	receivedWSMs 	0
scalar LocScenario.node[295].appl 	generatedBSMs 	403
scalar LocScenario.node[295].appl 	receivedBSMs 	2840
scalar LocScenario.node[295].appl 	generatedWSAs 	0
scalar LocScenario.node[295].appl 	receivedWSAs 	0
scalar LocScenario.node[295].appl 	rmseSUMGPS 	16667.936193662
scalar LocScenario.node[295].appl 	rmseSUMCP 	27893.142443663
scalar LocScenario.node[295].appl 	delaySum 	9.6932556261132
scalar LocScenario.node[295].nic.phy80211p 	busyTime 	0.0073307858975091
scalar LocScenario.node[295].nic.mac1609_4 	ReceivedUnicastPackets 	0
scalar LocScenario.node[295].nic.mac1609_4 	ReceivedBroadcasts 	2840
scalar LocScenario.node[295].nic.mac1609_4 	SentPackets 	403
scalar LocScenario.node[295].nic.mac1609_4 	SNIRLostPackets 	0
scalar LocScenario.node[295].nic.mac1609_4 	RXTXLostPackets 	0
scalar LocScenario.node[295].nic.mac1609_4 	TotalLostPackets 	0
scalar LocScenario.node[295].nic.mac1609_4 	DroppedPacketsInMac 	0
scalar LocScenario.node[295].nic.mac1609_4 	TooLittleTime 	0
scalar LocScenario.node[295].nic.mac1609_4 	TimesIntoBackoff 	403
scalar LocScenario.node[295].nic.mac1609_4 	SlotsBackoff 	628
scalar LocScenario.node[295].nic.mac1609_4 	NumInternalContention 	0
scalar LocScenario.node[295].nic.mac1609_4 	totalBusyTime 	0.337675
scalar LocScenario.node[295].veinsmobility 	startTime 	1470.1
scalar LocScenario.node[295].veinsmobility 	totalTime 	40.2
scalar LocScenario.node[295].veinsmobility 	stopTime 	1510.3903596053
scalar LocScenario.node[295].veinsmobility 	minSpeed 	10.45006227314
scalar LocScenario.node[295].veinsmobility 	maxSpeed 	10.499697231629
scalar LocScenario.node[295].veinsmobility 	totalDistance 	419.71805513513
scalar LocScenario.node[295].veinsmobility 	totalCO2Emission 	69.182261043456
scalar LocScenario.node[297].appl 	generatedWSMs 	0
scalar LocScenario.node[297].appl 	receivedWSMs 	0
scalar LocScenario.node[297].appl 	generatedBSMs 	302
scalar LocScenario.node[297].appl 	receivedBSMs 	2094
scalar LocScenario.node[297].appl 	generatedWSAs 	0
scalar LocScenario.node[297].appl 	receivedWSAs 	0
scalar LocScenario.node[297].appl 	rmseSUMGPS 	2737.2066172392
scalar LocScenario.node[297].appl 	rmseSUMCP 	17366.848582459
scalar LocScenario.node[297].appl 	delaySum 	10.944628976897
scalar LocScenario.node[297].nic.phy80211p 	busyTime 	0.0071896142151446
scalar LocScenario.node[297].nic.mac1609_4 	ReceivedUnicastPackets 	0
scalar LocScenario.node[297].nic.mac1609_4 	ReceivedBroadcasts 	2094
scalar LocScenario.node[297].nic.mac1609_4 	SentPackets 	302
scalar LocScenario.node[297].nic.mac1609_4 	SNIRLostPackets 	0
scalar LocScenario.node[297].nic.mac1609_4 	RXTXLostPackets 	0
scalar LocScenario.node[297].nic.mac1609_4 	TotalLostPackets 	0
scalar LocScenario.node[297].nic.mac1609_4 	DroppedPacketsInMac 	0
scalar LocScenario.node[297].nic.mac1609_4 	TooLittleTime 	0
scalar LocScenario.node[297].nic.mac1609_4 	TimesIntoBackoff 	302
scalar LocScenario.node[297].nic.mac1609_4 	SlotsBackoff 	476
scalar LocScenario.node[297].nic.mac1609_4 	NumInternalContention 	0
scalar LocScenario.node[297].nic.mac1609_4 	totalBusyTime 	0.249486
scalar LocScenario.node[297].veinsmobility 	startTime 	1480.1
scalar LocScenario.node[297].veinsmobility 	totalTime 	30.2
scalar LocScenario.node[297].veinsmobility 	stopTime 	1510.3903596053
scalar LocScenario.node[297].veinsmobility 	minSpeed 	10.450053020637
scalar LocScenario.node[297].veinsmobility 	maxSpeed 	10.499837322067
scalar LocScenario.node[297].veinsmobility 	totalDistance 	315.42120282803
scalar LocScenario.node[297].veinsmobility 	totalCO2Emission 	52.069205150586
scalar LocScenario.node[299].appl 	generatedWSMs 	0
scalar LocScenario.node[299].appl 	receivedWSMs 	0
scalar LocScenario.node[299].appl 	generatedBSMs 	203
scalar LocScenario.node[299].appl 	receivedBSMs 	1274
scalar LocScenario.node[299].appl 	generatedWSAs 	0
scalar LocScenario.node[299].appl 	receivedWSAs 	0
scalar LocScenario.node[299].appl 	rmseSUMGPS 	1851.90708441
scalar LocScenario.node[299].appl 	rmseSUMCP 	9547.9098821619
scalar LocScenario.node[299].appl 	delaySum 	11.353081230199
scalar LocScenario.node[299].nic.phy80211p 	busyTime 	0.0065299976233784
scalar LocScenario.node[299].nic.mac1609_4 	ReceivedUnicastPackets 	0
scalar LocScenario.node[299].nic.mac1609_4 	ReceivedBroadcasts 	1274
scalar LocScenario.node[299].nic.mac1609_4 	SentPackets 	203
scalar LocScenario.node[299].nic.mac1609_4 	SNIRLostPackets 	0
scalar LocScenario.node[299].nic.mac1609_4 	RXTXLostPackets 	0
scalar LocScenario.node[299].nic.mac1609_4 	TotalLostPackets 	0
scalar LocScenario.node[299].nic.mac1609_4 	DroppedPacketsInMac 	0
scalar LocScenario.node[299].nic.mac1609_4 	TooLittleTime 	0
scalar LocScenario.node[299].nic.mac1609_4 	TimesIntoBackoff 	203
scalar LocScenario.node[299].nic.mac1609_4 	SlotsBackoff 	331
scalar LocScenario.node[299].nic.mac1609_4 	NumInternalContention 	0
scalar LocScenario.node[299].nic.mac1609_4 	totalBusyTime 	0.153811
scalar LocScenario.node[299].veinsmobility 	startTime 	1490.1
scalar LocScenario.node[299].veinsmobility 	totalTime 	20.2
scalar LocScenario.node[299].veinsmobility 	stopTime 	1510.3903596053
scalar LocScenario.node[299].veinsmobility 	minSpeed 	10.450188108883
scalar LocScenario.node[299].veinsmobility 	maxSpeed 	10.499721448449
scalar LocScenario.node[299].veinsmobility 	totalDistance 	212.23563098973
scalar LocScenario.node[299].veinsmobility 	totalCO2Emission 	34.744305801015
scalar LocScenario.node[301].appl 	generatedWSMs 	0
scalar LocScenario.node[301].appl 	receivedWSMs 	0
scalar LocScenario.node[301].appl 	generatedBSMs 	103
scalar LocScenario.node[301].appl 	receivedBSMs 	614
scalar LocScenario.node[301].appl 	generatedWSAs 	0
scalar LocScenario.node[301].appl 	receivedWSAs 	0
scalar LocScenario.node[301].appl 	rmseSUMGPS 	907.90448056697
scalar LocScenario.node[301].appl 	rmseSUMCP 	5854.9760640523
scalar LocScenario.node[301].appl 	delaySum 	9.4165037218872
scalar LocScenario.node[301].nic.phy80211p 	busyTime 	0.0062054196791339
scalar LocScenario.node[301].nic.mac1609_4 	ReceivedUnicastPackets 	0
scalar LocScenario.node[301].nic.mac1609_4 	ReceivedBroadcasts 	614
scalar LocScenario.node[301].nic.mac1609_4 	SentPackets 	103
scalar LocScenario.node[301].nic.mac1609_4 	SNIRLostPackets 	0
scalar LocScenario.node[301].nic.mac1609_4 	RXTXLostPackets 	0
scalar LocScenario.node[301].nic.mac1609_4 	TotalLostPackets 	0
scalar LocScenario.node[301].nic.mac1609_4 	DroppedPacketsInMac 	0
scalar LocScenario.node[301].nic.mac1609_4 	TooLittleTime 	0
scalar LocScenario.node[301].nic.mac1609_4 	TimesIntoBackoff 	103
scalar LocScenario.node[301].nic.mac1609_4 	SlotsBackoff 	159
scalar LocScenario.node[301].nic.mac1609_4 	NumInternalContention 	0
scalar LocScenario.node[301].nic.mac1609_4 	totalBusyTime 	0.074671
scalar LocScenario.node[301].veinsmobility 	startTime 	1500.1
scalar LocScenario.node[301].veinsmobility 	totalTime 	10.2
scalar LocScenario.node[301].veinsmobility 	stopTime 	1510.3903596053
scalar LocScenario.node[301].veinsmobility 	minSpeed 	10.450009340025
scalar LocScenario.node[301].veinsmobility 	maxSpeed 	10.499609257758
scalar LocScenario.node[301].veinsmobility 	totalDistance 	106.5166279069
scalar LocScenario.node[301].veinsmobility 	totalCO2Emission 	17.607181007953
scalar LocScenario.node[303].appl 	generatedWSMs 	0
scalar LocScenario.node[303].appl 	receivedWSMs 	0
scalar LocScenario.node[303].appl 	generatedBSMs 	3
scalar LocScenario.node[303].appl 	receivedBSMs 	15
scalar LocScenario.node[303].appl 	generatedWSAs 	0
scalar LocScenario.node[303].appl 	receivedWSAs 	0
scalar LocScenario.node[303].appl 	rmseSUMGPS 	27.265205669514
scalar LocScenario.node[303].appl 	rmseSUMCP 	129.30642169879
scalar LocScenario.node[303].appl 	delaySum 	11.300506360781
scalar LocScenario.node[303].nic.phy80211p 	busyTime 	0.0053726481631933
scalar LocScenario.node[303].nic.mac1609_4 	ReceivedUnicastPackets 	0
scalar LocScenario.node[303].nic.mac1609_4 	ReceivedBroadcasts 	15
scalar LocScenario.node[303].nic.mac1609_4 	SentPackets 	3
scalar LocScenario.node[303].nic.mac1609_4 	SNIRLostPackets 	0
scalar LocScenario.node[303].nic.mac1609_4 	RXTXLostPackets 	0
scalar LocScenario.node[303].nic.mac1609_4 	TotalLostPackets 	0
scalar LocScenario.node[303].nic.mac1609_4 	DroppedPacketsInMac 	0
scalar LocScenario.node[303].nic.mac1609_4 	TooLittleTime 	0
scalar LocScenario.node[303].nic.mac1609_4 	TimesIntoBackoff 	3
scalar LocScenario.node[303].nic.mac1609_4 	SlotsBackoff 	4
scalar LocScenario.node[303].nic.mac1609_4 	NumInternalContention 	0
scalar LocScenario.node[303].nic.mac1609_4 	totalBusyTime 	0.001875
scalar LocScenario.node[303].veinsmobility 	startTime 	1510.1
scalar LocScenario.node[303].veinsmobility 	totalTime 	0.2
scalar LocScenario.node[303].veinsmobility 	stopTime 	1510.3903596053
scalar LocScenario.node[303].veinsmobility 	minSpeed 	10.458302575094
scalar LocScenario.node[303].veinsmobility 	maxSpeed 	10.48537717259
scalar LocScenario.node[303].veinsmobility 	totalDistance 	2.1006496420881
scalar LocScenario.node[303].veinsmobility 	totalCO2Emission 	0.0973
scalar LocScenario.outagesServer.appl 	generatedWSMs 	0
scalar LocScenario.outagesServer.appl 	receivedWSMs 	0
scalar LocScenario.outagesServer.appl 	generatedBSMs 	0
scalar LocScenario.outagesServer.appl 	receivedBSMs 	0
scalar LocScenario.outagesServer.appl 	generatedWSAs 	0
scalar LocScenario.outagesServer.appl 	receivedWSAs 	0
scalar LocScenario.outagesServer.nic.phy80211p 	busyTime 	0
scalar LocScenario.outagesServer.nic.mac1609_4 	ReceivedUnicastPackets 	0
scalar LocScenario.outagesServer.nic.mac1609_4 	ReceivedBroadcasts 	0
scalar LocScenario.outagesServer.nic.mac1609_4 	SentPackets 	0
scalar LocScenario.outagesServer.nic.mac1609_4 	SNIRLostPackets 	0
scalar LocScenario.outagesServer.nic.mac1609_4 	RXTXLostPackets 	0
scalar LocScenario.outagesServer.nic.mac1609_4 	TotalLostPackets 	0
scalar LocScenario.outagesServer.nic.mac1609_4 	DroppedPacketsInMac 	0
scalar LocScenario.outagesServer.nic.mac1609_4 	TooLittleTime 	0
scalar LocScenario.outagesServer.nic.mac1609_4 	TimesIntoBackoff 	0
scalar LocScenario.outagesServer.nic.mac1609_4 	SlotsBackoff 	0
scalar LocScenario.outagesServer.nic.mac1609_4 	NumInternalContention 	0
scalar LocScenario.outagesServer.nic.mac1609_4 	totalBusyTime 	0
