version 2
run DMAT-48-20171112-10:36:05-20727
attr configname DMAT
attr datetime 20171112-10:36:05
attr experiment DMAT
attr hops 5
attr inifile omnetpp.ini
attr iterationvars "$logVehPeriod=15, $hops=5"
attr iterationvars2 "$logVehPeriod=15, $hops=5, $repetition=8"
attr logVehPeriod 15
attr measurement "$logVehPeriod=15, $hops=5"
attr network com.liborio.cooppos.LocScenario
attr processid 20727
attr repetition 8
attr replication #8
attr resultdir results
attr runnumber 48
attr seedset 8
param **.coreDebug false
param **.debug false
param *.annotations.draw false
param *.connectionManager.drawMaxIntfDist false
param *.connectionManager.maxInterfDist 600m
param *.connectionManager.sendDirect true
param *.manager.autoShutdown true
param *.manager.host "\"localhost\""
param *.manager.launchConfig "xmldoc(\"dmat-\"+string(${logVehPeriod = 15, 10, 5, 3, 1})+\".launchd.xml\")"
param *.manager.port 9999
param *.manager.updateInterval 0.1s
param *.node[*].appl.beaconInterval 0.1s
param *.node[*].appl.dataOnSch false
param *.node[*].appl.headerLength "80 bit"
param *.node[*].appl.hops "${hops = 1, 2, 3, 4, 5}"
param *.node[*].appl.logVehPeriod ${logVehPeriod}
param *.node[*].appl.seedPar ${repetition}
param *.node[*].appl.sendBeacons true
param *.node[*].applType "\"Communication\""
param *.node[*].nic.mac1609_4.bitrate 6Mbps
param *.node[*].nic.mac1609_4.txPower 20mW
param *.node[*].nic.mac1609_4.useServiceChannel false
param *.node[*].nic.phy80211p.analogueModels "xmldoc(\"config.xml\")"
param *.node[*].nic.phy80211p.antenna "xmldoc(\"antenna.xml\", \"/root/Antenna[@id='monopole']\")"
param *.node[*].nic.phy80211p.decider "xmldoc(\"config.xml\")"
param *.node[*].nic.phy80211p.sensitivity -84.39dBm
param *.node[*].nic.phy80211p.thermalNoise -110dBm
param *.node[*].nic.phy80211p.usePropagationDelay true
param *.node[*].nic.phy80211p.useThermalNoise true
param *.node[*].veinsmobility.x 0
param *.node[*].veinsmobility.y 0
param *.node[*].veinsmobility.z 1.895
param *.node[*].veinsmobilityType.debug true
param *.outagesServer.appl.beaconInterval 0.1s
param *.outagesServer.appl.beaconPriority 3
param *.outagesServer.appl.dataOnSch false
param *.outagesServer.appl.dataPriority 2
param *.outagesServer.appl.headerLength "80 bit"
param *.outagesServer.appl.sendBeacons false
param *.outagesServer.applType "\"Outages\""
param *.outagesServer.mobility.x 5000.0
param *.outagesServer.mobility.y 5000.0
param *.outagesServer.mobility.z 3
param *.outagesServer.nic.mac1609_4.bitrate 6Mbps
param *.outagesServer.nic.mac1609_4.txPower 20mW
param *.outagesServer.nic.mac1609_4.useServiceChannel false
param *.outagesServer.nic.phy80211p.analogueModels "xmldoc(\"config.xml\")"
param *.outagesServer.nic.phy80211p.antenna "xmldoc(\"antenna.xml\", \"/root/Antenna[@id='monopole']\")"
param *.outagesServer.nic.phy80211p.decider "xmldoc(\"config.xml\")"
param *.outagesServer.nic.phy80211p.sensitivity -84.39dBm
param *.outagesServer.nic.phy80211p.thermalNoise -110dBm
param *.outagesServer.nic.phy80211p.usePropagationDelay true
param *.outagesServer.nic.phy80211p.useThermalNoise true
param *.playgroundSizeX 20000m
param *.playgroundSizeY 20000m
param *.playgroundSizeZ 50m

scalar . 	hops 	5
scalar . 	logVehPeriod 	15
scalar LocScenario.node[1].appl 	generatedWSMs 	0
scalar LocScenario.node[1].appl 	receivedWSMs 	0
scalar LocScenario.node[1].appl 	generatedBSMs 	2040
scalar LocScenario.node[1].appl 	receivedBSMs 	4817
scalar LocScenario.node[1].appl 	generatedWSAs 	0
scalar LocScenario.node[1].appl 	receivedWSAs 	0
scalar LocScenario.node[1].appl 	rmseSUMGPS 	571177.21572299
scalar LocScenario.node[1].appl 	rmseSUMCP 	499101.78448503
scalar LocScenario.node[1].appl 	delaySum 	0.53933278092544
scalar LocScenario.node[1].nic.phy80211p 	busyTime 	0.002455725490196
scalar LocScenario.node[1].nic.mac1609_4 	ReceivedUnicastPackets 	0
scalar LocScenario.node[1].nic.mac1609_4 	ReceivedBroadcasts 	4817
scalar LocScenario.node[1].nic.mac1609_4 	SentPackets 	2040
scalar LocScenario.node[1].nic.mac1609_4 	SNIRLostPackets 	0
scalar LocScenario.node[1].nic.mac1609_4 	RXTXLostPackets 	0
scalar LocScenario.node[1].nic.mac1609_4 	TotalLostPackets 	0
scalar LocScenario.node[1].nic.mac1609_4 	DroppedPacketsInMac 	0
scalar LocScenario.node[1].nic.mac1609_4 	TooLittleTime 	0
scalar LocScenario.node[1].nic.mac1609_4 	TimesIntoBackoff 	2040
scalar LocScenario.node[1].nic.mac1609_4 	SlotsBackoff 	3071
scalar LocScenario.node[1].nic.mac1609_4 	NumInternalContention 	0
scalar LocScenario.node[1].nic.mac1609_4 	totalBusyTime 	0.715168
scalar LocScenario.node[1].veinsmobility 	startTime 	0.1
scalar LocScenario.node[1].veinsmobility 	totalTime 	203.9
scalar LocScenario.node[1].veinsmobility 	stopTime 	204.1
scalar LocScenario.node[1].veinsmobility 	minSpeed 	10.450030962925
scalar LocScenario.node[1].veinsmobility 	maxSpeed 	10.499919527606
scalar LocScenario.node[1].veinsmobility 	totalDistance 	2138.761734842
scalar LocScenario.node[1].veinsmobility 	totalCO2Emission 	351.69214073516
scalar LocScenario.node[3].appl 	generatedWSMs 	0
scalar LocScenario.node[3].appl 	receivedWSMs 	0
scalar LocScenario.node[3].appl 	generatedBSMs 	2040
scalar LocScenario.node[3].appl 	receivedBSMs 	6929
scalar LocScenario.node[3].appl 	generatedWSAs 	0
scalar LocScenario.node[3].appl 	receivedWSAs 	0
scalar LocScenario.node[3].appl 	rmseSUMGPS 	1000525.8449035
scalar LocScenario.node[3].appl 	rmseSUMCP 	960817.65020197
scalar LocScenario.node[3].appl 	delaySum 	0.77499608149678
scalar LocScenario.node[3].nic.phy80211p 	busyTime 	0.0035324313725488
scalar LocScenario.node[3].nic.mac1609_4 	ReceivedUnicastPackets 	0
scalar LocScenario.node[3].nic.mac1609_4 	ReceivedBroadcasts 	6929
scalar LocScenario.node[3].nic.mac1609_4 	SentPackets 	2040
scalar LocScenario.node[3].nic.mac1609_4 	SNIRLostPackets 	0
scalar LocScenario.node[3].nic.mac1609_4 	RXTXLostPackets 	0
scalar LocScenario.node[3].nic.mac1609_4 	TotalLostPackets 	0
scalar LocScenario.node[3].nic.mac1609_4 	DroppedPacketsInMac 	0
scalar LocScenario.node[3].nic.mac1609_4 	TooLittleTime 	0
scalar LocScenario.node[3].nic.mac1609_4 	TimesIntoBackoff 	2040
scalar LocScenario.node[3].nic.mac1609_4 	SlotsBackoff 	3060
scalar LocScenario.node[3].nic.mac1609_4 	NumInternalContention 	0
scalar LocScenario.node[3].nic.mac1609_4 	totalBusyTime 	0.934816
scalar LocScenario.node[3].veinsmobility 	startTime 	15.1
scalar LocScenario.node[3].veinsmobility 	totalTime 	203.9
scalar LocScenario.node[3].veinsmobility 	stopTime 	219.1
scalar LocScenario.node[3].veinsmobility 	minSpeed 	10.450011140131
scalar LocScenario.node[3].veinsmobility 	maxSpeed 	10.499986563961
scalar LocScenario.node[3].veinsmobility 	totalDistance 	2133.8809396634
scalar LocScenario.node[3].veinsmobility 	totalCO2Emission 	352.22807504163
scalar LocScenario.node[0].appl 	generatedWSMs 	0
scalar LocScenario.node[0].appl 	receivedWSMs 	0
scalar LocScenario.node[0].appl 	generatedBSMs 	2281
scalar LocScenario.node[0].appl 	receivedBSMs 	5203
scalar LocScenario.node[0].appl 	generatedWSAs 	0
scalar LocScenario.node[0].appl 	receivedWSAs 	0
scalar LocScenario.node[0].appl 	rmseSUMGPS 	749018.98092329
scalar LocScenario.node[0].appl 	rmseSUMCP 	508612.16487495
scalar LocScenario.node[0].appl 	delaySum 	0.58340702908792
scalar LocScenario.node[0].nic.phy80211p 	busyTime 	0.0023722577816746
scalar LocScenario.node[0].nic.mac1609_4 	ReceivedUnicastPackets 	0
scalar LocScenario.node[0].nic.mac1609_4 	ReceivedBroadcasts 	5203
scalar LocScenario.node[0].nic.mac1609_4 	SentPackets 	2281
scalar LocScenario.node[0].nic.mac1609_4 	SNIRLostPackets 	0
scalar LocScenario.node[0].nic.mac1609_4 	RXTXLostPackets 	0
scalar LocScenario.node[0].nic.mac1609_4 	TotalLostPackets 	0
scalar LocScenario.node[0].nic.mac1609_4 	DroppedPacketsInMac 	0
scalar LocScenario.node[0].nic.mac1609_4 	TooLittleTime 	0
scalar LocScenario.node[0].nic.mac1609_4 	TimesIntoBackoff 	2281
scalar LocScenario.node[0].nic.mac1609_4 	SlotsBackoff 	3461
scalar LocScenario.node[0].nic.mac1609_4 	NumInternalContention 	0
scalar LocScenario.node[0].nic.mac1609_4 	totalBusyTime 	0.780617
scalar LocScenario.node[0].veinsmobility 	startTime 	0.1
scalar LocScenario.node[0].veinsmobility 	totalTime 	228
scalar LocScenario.node[0].veinsmobility 	stopTime 	228.2
scalar LocScenario.node[0].veinsmobility 	minSpeed 	10.450018783275
scalar LocScenario.node[0].veinsmobility 	maxSpeed 	10.499985006254
scalar LocScenario.node[0].veinsmobility 	totalDistance 	2388.692037639
scalar LocScenario.node[0].veinsmobility 	totalCO2Emission 	393.37984870012
scalar LocScenario.node[5].appl 	generatedWSMs 	0
scalar LocScenario.node[5].appl 	receivedWSMs 	0
scalar LocScenario.node[5].appl 	generatedBSMs 	2040
scalar LocScenario.node[5].appl 	receivedBSMs 	7150
scalar LocScenario.node[5].appl 	generatedWSAs 	0
scalar LocScenario.node[5].appl 	receivedWSAs 	0
scalar LocScenario.node[5].appl 	rmseSUMGPS 	1022191.8620563
scalar LocScenario.node[5].appl 	rmseSUMCP 	1043007.6072654
scalar LocScenario.node[5].appl 	delaySum 	0.80124441327985
scalar LocScenario.node[5].nic.phy80211p 	busyTime 	0.0036450980392155
scalar LocScenario.node[5].nic.mac1609_4 	ReceivedUnicastPackets 	0
scalar LocScenario.node[5].nic.mac1609_4 	ReceivedBroadcasts 	7150
scalar LocScenario.node[5].nic.mac1609_4 	SentPackets 	2040
scalar LocScenario.node[5].nic.mac1609_4 	SNIRLostPackets 	0
scalar LocScenario.node[5].nic.mac1609_4 	RXTXLostPackets 	0
scalar LocScenario.node[5].nic.mac1609_4 	TotalLostPackets 	0
scalar LocScenario.node[5].nic.mac1609_4 	DroppedPacketsInMac 	0
scalar LocScenario.node[5].nic.mac1609_4 	TooLittleTime 	0
scalar LocScenario.node[5].nic.mac1609_4 	TimesIntoBackoff 	2040
scalar LocScenario.node[5].nic.mac1609_4 	SlotsBackoff 	3027
scalar LocScenario.node[5].nic.mac1609_4 	NumInternalContention 	0
scalar LocScenario.node[5].nic.mac1609_4 	totalBusyTime 	0.9578
scalar LocScenario.node[5].veinsmobility 	startTime 	30.1
scalar LocScenario.node[5].veinsmobility 	totalTime 	203.9
scalar LocScenario.node[5].veinsmobility 	stopTime 	234.1
scalar LocScenario.node[5].veinsmobility 	minSpeed 	10.450039089075
scalar LocScenario.node[5].veinsmobility 	maxSpeed 	10.499959012354
scalar LocScenario.node[5].veinsmobility 	totalDistance 	2138.7886685664
scalar LocScenario.node[5].veinsmobility 	totalCO2Emission 	352.4743720729
scalar LocScenario.node[2].appl 	generatedWSMs 	0
scalar LocScenario.node[2].appl 	receivedWSMs 	0
scalar LocScenario.node[2].appl 	generatedBSMs 	2281
scalar LocScenario.node[2].appl 	receivedBSMs 	7557
scalar LocScenario.node[2].appl 	generatedWSAs 	0
scalar LocScenario.node[2].appl 	receivedWSAs 	0
scalar LocScenario.node[2].appl 	rmseSUMGPS 	22753.553816348
scalar LocScenario.node[2].appl 	rmseSUMCP 	220577.3703111
scalar LocScenario.node[2].appl 	delaySum 	0.84672136956412
scalar LocScenario.node[2].nic.phy80211p 	busyTime 	0.0034455414291975
scalar LocScenario.node[2].nic.mac1609_4 	ReceivedUnicastPackets 	0
scalar LocScenario.node[2].nic.mac1609_4 	ReceivedBroadcasts 	7557
scalar LocScenario.node[2].nic.mac1609_4 	SentPackets 	2281
scalar LocScenario.node[2].nic.mac1609_4 	SNIRLostPackets 	0
scalar LocScenario.node[2].nic.mac1609_4 	RXTXLostPackets 	0
scalar LocScenario.node[2].nic.mac1609_4 	TotalLostPackets 	0
scalar LocScenario.node[2].nic.mac1609_4 	DroppedPacketsInMac 	0
scalar LocScenario.node[2].nic.mac1609_4 	TooLittleTime 	0
scalar LocScenario.node[2].nic.mac1609_4 	TimesIntoBackoff 	2281
scalar LocScenario.node[2].nic.mac1609_4 	SlotsBackoff 	3519
scalar LocScenario.node[2].nic.mac1609_4 	NumInternalContention 	0
scalar LocScenario.node[2].nic.mac1609_4 	totalBusyTime 	1.025433
scalar LocScenario.node[2].veinsmobility 	startTime 	15.1
scalar LocScenario.node[2].veinsmobility 	totalTime 	228
scalar LocScenario.node[2].veinsmobility 	stopTime 	243.2
scalar LocScenario.node[2].veinsmobility 	minSpeed 	10.4500411571
scalar LocScenario.node[2].veinsmobility 	maxSpeed 	10.499994438223
scalar LocScenario.node[2].veinsmobility 	totalDistance 	2394.7254414482
scalar LocScenario.node[2].veinsmobility 	totalCO2Emission 	393.99232060724
scalar LocScenario.node[7].appl 	generatedWSMs 	0
scalar LocScenario.node[7].appl 	receivedWSMs 	0
scalar LocScenario.node[7].appl 	generatedBSMs 	2040
scalar LocScenario.node[7].appl 	receivedBSMs 	7374
scalar LocScenario.node[7].appl 	generatedWSAs 	0
scalar LocScenario.node[7].appl 	receivedWSAs 	0
scalar LocScenario.node[7].appl 	rmseSUMGPS 	858120.88397743
scalar LocScenario.node[7].appl 	rmseSUMCP 	1217026.2491556
scalar LocScenario.node[7].appl 	delaySum 	0.82499646614519
scalar LocScenario.node[7].nic.phy80211p 	busyTime 	0.0037592941176469
scalar LocScenario.node[7].nic.mac1609_4 	ReceivedUnicastPackets 	0
scalar LocScenario.node[7].nic.mac1609_4 	ReceivedBroadcasts 	7374
scalar LocScenario.node[7].nic.mac1609_4 	SentPackets 	2040
scalar LocScenario.node[7].nic.mac1609_4 	SNIRLostPackets 	0
scalar LocScenario.node[7].nic.mac1609_4 	RXTXLostPackets 	0
scalar LocScenario.node[7].nic.mac1609_4 	TotalLostPackets 	0
scalar LocScenario.node[7].nic.mac1609_4 	DroppedPacketsInMac 	0
scalar LocScenario.node[7].nic.mac1609_4 	TooLittleTime 	0
scalar LocScenario.node[7].nic.mac1609_4 	TimesIntoBackoff 	2040
scalar LocScenario.node[7].nic.mac1609_4 	SlotsBackoff 	2996
scalar LocScenario.node[7].nic.mac1609_4 	NumInternalContention 	0
scalar LocScenario.node[7].nic.mac1609_4 	totalBusyTime 	0.981096
scalar LocScenario.node[7].veinsmobility 	startTime 	45.1
scalar LocScenario.node[7].veinsmobility 	totalTime 	203.9
scalar LocScenario.node[7].veinsmobility 	stopTime 	249.1
scalar LocScenario.node[7].veinsmobility 	minSpeed 	10.45000029729
scalar LocScenario.node[7].veinsmobility 	maxSpeed 	10.499982007616
scalar LocScenario.node[7].veinsmobility 	totalDistance 	2138.7150811803
scalar LocScenario.node[7].veinsmobility 	totalCO2Emission 	351.4571973657
scalar LocScenario.node[4].appl 	generatedWSMs 	0
scalar LocScenario.node[4].appl 	receivedWSMs 	0
scalar LocScenario.node[4].appl 	generatedBSMs 	2281
scalar LocScenario.node[4].appl 	receivedBSMs 	7779
scalar LocScenario.node[4].appl 	generatedWSAs 	0
scalar LocScenario.node[4].appl 	receivedWSAs 	0
scalar LocScenario.node[4].appl 	rmseSUMGPS 	1006825.4677838
scalar LocScenario.node[4].appl 	rmseSUMCP 	227437.80000555
scalar LocScenario.node[4].appl 	delaySum 	0.87125942294486
scalar LocScenario.node[4].nic.phy80211p 	busyTime 	0.0035467601928977
scalar LocScenario.node[4].nic.mac1609_4 	ReceivedUnicastPackets 	0
scalar LocScenario.node[4].nic.mac1609_4 	ReceivedBroadcasts 	7779
scalar LocScenario.node[4].nic.mac1609_4 	SentPackets 	2281
scalar LocScenario.node[4].nic.mac1609_4 	SNIRLostPackets 	0
scalar LocScenario.node[4].nic.mac1609_4 	RXTXLostPackets 	0
scalar LocScenario.node[4].nic.mac1609_4 	TotalLostPackets 	0
scalar LocScenario.node[4].nic.mac1609_4 	DroppedPacketsInMac 	0
scalar LocScenario.node[4].nic.mac1609_4 	TooLittleTime 	0
scalar LocScenario.node[4].nic.mac1609_4 	TimesIntoBackoff 	2281
scalar LocScenario.node[4].nic.mac1609_4 	SlotsBackoff 	3298
scalar LocScenario.node[4].nic.mac1609_4 	NumInternalContention 	0
scalar LocScenario.node[4].nic.mac1609_4 	totalBusyTime 	1.048521
scalar LocScenario.node[4].veinsmobility 	startTime 	30.1
scalar LocScenario.node[4].veinsmobility 	totalTime 	228
scalar LocScenario.node[4].veinsmobility 	stopTime 	258.2
scalar LocScenario.node[4].veinsmobility 	minSpeed 	10.450004577765
scalar LocScenario.node[4].veinsmobility 	maxSpeed 	10.499995832634
scalar LocScenario.node[4].veinsmobility 	totalDistance 	2388.7867484807
scalar LocScenario.node[4].veinsmobility 	totalCO2Emission 	393.60627335976
scalar LocScenario.node[9].appl 	generatedWSMs 	0
scalar LocScenario.node[9].appl 	receivedWSMs 	0
scalar LocScenario.node[9].appl 	generatedBSMs 	2040
scalar LocScenario.node[9].appl 	receivedBSMs 	7596
scalar LocScenario.node[9].appl 	generatedWSAs 	0
scalar LocScenario.node[9].appl 	receivedWSAs 	0
scalar LocScenario.node[9].appl 	rmseSUMGPS 	692256.75951615
scalar LocScenario.node[9].appl 	rmseSUMCP 	416969.03175438
scalar LocScenario.node[9].appl 	delaySum 	0.85990613807612
scalar LocScenario.node[9].nic.phy80211p 	busyTime 	0.0038724705882351
scalar LocScenario.node[9].nic.mac1609_4 	ReceivedUnicastPackets 	0
scalar LocScenario.node[9].nic.mac1609_4 	ReceivedBroadcasts 	7596
scalar LocScenario.node[9].nic.mac1609_4 	SentPackets 	2040
scalar LocScenario.node[9].nic.mac1609_4 	SNIRLostPackets 	0
scalar LocScenario.node[9].nic.mac1609_4 	RXTXLostPackets 	0
scalar LocScenario.node[9].nic.mac1609_4 	TotalLostPackets 	0
scalar LocScenario.node[9].nic.mac1609_4 	DroppedPacketsInMac 	0
scalar LocScenario.node[9].nic.mac1609_4 	TooLittleTime 	0
scalar LocScenario.node[9].nic.mac1609_4 	TimesIntoBackoff 	2040
scalar LocScenario.node[9].nic.mac1609_4 	SlotsBackoff 	2981
scalar LocScenario.node[9].nic.mac1609_4 	NumInternalContention 	0
scalar LocScenario.node[9].nic.mac1609_4 	totalBusyTime 	1.004184
scalar LocScenario.node[9].veinsmobility 	startTime 	60.1
scalar LocScenario.node[9].veinsmobility 	totalTime 	203.9
scalar LocScenario.node[9].veinsmobility 	stopTime 	264.1
scalar LocScenario.node[9].veinsmobility 	minSpeed 	10.450008039549
scalar LocScenario.node[9].veinsmobility 	maxSpeed 	10.499959694396
scalar LocScenario.node[9].veinsmobility 	totalDistance 	2133.8526276471
scalar LocScenario.node[9].veinsmobility 	totalCO2Emission 	351.40359199642
scalar LocScenario.node[6].appl 	generatedWSMs 	0
scalar LocScenario.node[6].appl 	receivedWSMs 	0
scalar LocScenario.node[6].appl 	generatedBSMs 	2281
scalar LocScenario.node[6].appl 	receivedBSMs 	8001
scalar LocScenario.node[6].appl 	generatedWSAs 	0
scalar LocScenario.node[6].appl 	receivedWSAs 	0
scalar LocScenario.node[6].appl 	rmseSUMGPS 	768336.55445886
scalar LocScenario.node[6].appl 	rmseSUMCP 	249597.47636023
scalar LocScenario.node[6].appl 	delaySum 	0.89610827599171
scalar LocScenario.node[6].nic.phy80211p 	busyTime 	0.0036479789565978
scalar LocScenario.node[6].nic.mac1609_4 	ReceivedUnicastPackets 	0
scalar LocScenario.node[6].nic.mac1609_4 	ReceivedBroadcasts 	8001
scalar LocScenario.node[6].nic.mac1609_4 	SentPackets 	2281
scalar LocScenario.node[6].nic.mac1609_4 	SNIRLostPackets 	0
scalar LocScenario.node[6].nic.mac1609_4 	RXTXLostPackets 	0
scalar LocScenario.node[6].nic.mac1609_4 	TotalLostPackets 	0
scalar LocScenario.node[6].nic.mac1609_4 	DroppedPacketsInMac 	0
scalar LocScenario.node[6].nic.mac1609_4 	TooLittleTime 	0
scalar LocScenario.node[6].nic.mac1609_4 	TimesIntoBackoff 	2281
scalar LocScenario.node[6].nic.mac1609_4 	SlotsBackoff 	3484
scalar LocScenario.node[6].nic.mac1609_4 	NumInternalContention 	0
scalar LocScenario.node[6].nic.mac1609_4 	totalBusyTime 	1.071609
scalar LocScenario.node[6].veinsmobility 	startTime 	45.1
scalar LocScenario.node[6].veinsmobility 	totalTime 	228
scalar LocScenario.node[6].veinsmobility 	stopTime 	273.2
scalar LocScenario.node[6].veinsmobility 	minSpeed 	10.450066787703
scalar LocScenario.node[6].veinsmobility 	maxSpeed 	10.499995675241
scalar LocScenario.node[6].veinsmobility 	totalDistance 	2388.7177874093
scalar LocScenario.node[6].veinsmobility 	totalCO2Emission 	393.4580103562
scalar LocScenario.node[11].appl 	generatedWSMs 	0
scalar LocScenario.node[11].appl 	receivedWSMs 	0
scalar LocScenario.node[11].appl 	generatedBSMs 	2040
scalar LocScenario.node[11].appl 	receivedBSMs 	7815
scalar LocScenario.node[11].appl 	generatedWSAs 	0
scalar LocScenario.node[11].appl 	receivedWSAs 	0
scalar LocScenario.node[11].appl 	rmseSUMGPS 	714488.88549478
scalar LocScenario.node[11].appl 	rmseSUMCP 	1074696.3210822
scalar LocScenario.node[11].appl 	delaySum 	0.87523358085687
scalar LocScenario.node[11].nic.phy80211p 	busyTime 	0.0039841176470586
scalar LocScenario.node[11].nic.mac1609_4 	ReceivedUnicastPackets 	0
scalar LocScenario.node[11].nic.mac1609_4 	ReceivedBroadcasts 	7815
scalar LocScenario.node[11].nic.mac1609_4 	SentPackets 	2040
scalar LocScenario.node[11].nic.mac1609_4 	SNIRLostPackets 	0
scalar LocScenario.node[11].nic.mac1609_4 	RXTXLostPackets 	0
scalar LocScenario.node[11].nic.mac1609_4 	TotalLostPackets 	0
scalar LocScenario.node[11].nic.mac1609_4 	DroppedPacketsInMac 	0
scalar LocScenario.node[11].nic.mac1609_4 	TooLittleTime 	0
scalar LocScenario.node[11].nic.mac1609_4 	TimesIntoBackoff 	2040
scalar LocScenario.node[11].nic.mac1609_4 	SlotsBackoff 	3060
scalar LocScenario.node[11].nic.mac1609_4 	NumInternalContention 	0
scalar LocScenario.node[11].nic.mac1609_4 	totalBusyTime 	1.02696
scalar LocScenario.node[11].veinsmobility 	startTime 	75.1
scalar LocScenario.node[11].veinsmobility 	totalTime 	203.9
scalar LocScenario.node[11].veinsmobility 	stopTime 	279.1
scalar LocScenario.node[11].veinsmobility 	minSpeed 	10.450002807949
scalar LocScenario.node[11].veinsmobility 	maxSpeed 	10.499948467663
scalar LocScenario.node[11].veinsmobility 	totalDistance 	2138.7787038771
scalar LocScenario.node[11].veinsmobility 	totalCO2Emission 	351.56915353698
scalar LocScenario.node[8].appl 	generatedWSMs 	0
scalar LocScenario.node[8].appl 	receivedWSMs 	0
scalar LocScenario.node[8].appl 	generatedBSMs 	2281
scalar LocScenario.node[8].appl 	receivedBSMs 	8219
scalar LocScenario.node[8].appl 	generatedWSAs 	0
scalar LocScenario.node[8].appl 	receivedWSAs 	0
scalar LocScenario.node[8].appl 	rmseSUMGPS 	96597.469220433
scalar LocScenario.node[8].appl 	rmseSUMCP 	274858.66164602
scalar LocScenario.node[8].appl 	delaySum 	0.91976246144089
scalar LocScenario.node[8].nic.phy80211p 	busyTime 	0.0037473739587898
scalar LocScenario.node[8].nic.mac1609_4 	ReceivedUnicastPackets 	0
scalar LocScenario.node[8].nic.mac1609_4 	ReceivedBroadcasts 	8219
scalar LocScenario.node[8].nic.mac1609_4 	SentPackets 	2281
scalar LocScenario.node[8].nic.mac1609_4 	SNIRLostPackets 	0
scalar LocScenario.node[8].nic.mac1609_4 	RXTXLostPackets 	0
scalar LocScenario.node[8].nic.mac1609_4 	TotalLostPackets 	0
scalar LocScenario.node[8].nic.mac1609_4 	DroppedPacketsInMac 	0
scalar LocScenario.node[8].nic.mac1609_4 	TooLittleTime 	0
scalar LocScenario.node[8].nic.mac1609_4 	TimesIntoBackoff 	2281
scalar LocScenario.node[8].nic.mac1609_4 	SlotsBackoff 	3447
scalar LocScenario.node[8].nic.mac1609_4 	NumInternalContention 	0
scalar LocScenario.node[8].nic.mac1609_4 	totalBusyTime 	1.094281
scalar LocScenario.node[8].veinsmobility 	startTime 	60.1
scalar LocScenario.node[8].veinsmobility 	totalTime 	228
scalar LocScenario.node[8].veinsmobility 	stopTime 	288.2
scalar LocScenario.node[8].veinsmobility 	minSpeed 	10.45001529787
scalar LocScenario.node[8].veinsmobility 	maxSpeed 	10.499995662412
scalar LocScenario.node[8].veinsmobility 	totalDistance 	2392.2652352439
scalar LocScenario.node[8].veinsmobility 	totalCO2Emission 	393.86651052191
scalar LocScenario.node[13].appl 	generatedWSMs 	0
scalar LocScenario.node[13].appl 	receivedWSMs 	0
scalar LocScenario.node[13].appl 	generatedBSMs 	2040
scalar LocScenario.node[13].appl 	receivedBSMs 	8040
scalar LocScenario.node[13].appl 	generatedWSAs 	0
scalar LocScenario.node[13].appl 	receivedWSAs 	0
scalar LocScenario.node[13].appl 	rmseSUMGPS 	711784.60500768
scalar LocScenario.node[13].appl 	rmseSUMCP 	1048578.8763387
scalar LocScenario.node[13].appl 	delaySum 	0.90891981439668
scalar LocScenario.node[13].nic.phy80211p 	busyTime 	0.0040988235294115
scalar LocScenario.node[13].nic.mac1609_4 	ReceivedUnicastPackets 	0
scalar LocScenario.node[13].nic.mac1609_4 	ReceivedBroadcasts 	8040
scalar LocScenario.node[13].nic.mac1609_4 	SentPackets 	2040
scalar LocScenario.node[13].nic.mac1609_4 	SNIRLostPackets 	0
scalar LocScenario.node[13].nic.mac1609_4 	RXTXLostPackets 	0
scalar LocScenario.node[13].nic.mac1609_4 	TotalLostPackets 	0
scalar LocScenario.node[13].nic.mac1609_4 	DroppedPacketsInMac 	0
scalar LocScenario.node[13].nic.mac1609_4 	TooLittleTime 	0
scalar LocScenario.node[13].nic.mac1609_4 	TimesIntoBackoff 	2040
scalar LocScenario.node[13].nic.mac1609_4 	SlotsBackoff 	3019
scalar LocScenario.node[13].nic.mac1609_4 	NumInternalContention 	0
scalar LocScenario.node[13].nic.mac1609_4 	totalBusyTime 	1.05036
scalar LocScenario.node[13].veinsmobility 	startTime 	90.1
scalar LocScenario.node[13].veinsmobility 	totalTime 	203.9
scalar LocScenario.node[13].veinsmobility 	stopTime 	294.1
scalar LocScenario.node[13].veinsmobility 	minSpeed 	10.45001460237
scalar LocScenario.node[13].veinsmobility 	maxSpeed 	10.499975925172
scalar LocScenario.node[13].veinsmobility 	totalDistance 	2138.684079505
scalar LocScenario.node[13].veinsmobility 	totalCO2Emission 	351.70235169908
scalar LocScenario.node[10].appl 	generatedWSMs 	0
scalar LocScenario.node[10].appl 	receivedWSMs 	0
scalar LocScenario.node[10].appl 	generatedBSMs 	2281
scalar LocScenario.node[10].appl 	receivedBSMs 	8431
scalar LocScenario.node[10].appl 	generatedWSAs 	0
scalar LocScenario.node[10].appl 	receivedWSAs 	0
scalar LocScenario.node[10].appl 	rmseSUMGPS 	47056.729801588
scalar LocScenario.node[10].appl 	rmseSUMCP 	302042.58805886
scalar LocScenario.node[10].appl 	delaySum 	5.0445094327632e+16
scalar LocScenario.node[10].nic.phy80211p 	busyTime 	0.0038440333187197
scalar LocScenario.node[10].nic.mac1609_4 	ReceivedUnicastPackets 	0
scalar LocScenario.node[10].nic.mac1609_4 	ReceivedBroadcasts 	8431
scalar LocScenario.node[10].nic.mac1609_4 	SentPackets 	2281
scalar LocScenario.node[10].nic.mac1609_4 	SNIRLostPackets 	0
scalar LocScenario.node[10].nic.mac1609_4 	RXTXLostPackets 	0
scalar LocScenario.node[10].nic.mac1609_4 	TotalLostPackets 	0
scalar LocScenario.node[10].nic.mac1609_4 	DroppedPacketsInMac 	0
scalar LocScenario.node[10].nic.mac1609_4 	TooLittleTime 	0
scalar LocScenario.node[10].nic.mac1609_4 	TimesIntoBackoff 	2281
scalar LocScenario.node[10].nic.mac1609_4 	SlotsBackoff 	3422
scalar LocScenario.node[10].nic.mac1609_4 	NumInternalContention 	0
scalar LocScenario.node[10].nic.mac1609_4 	totalBusyTime 	1.116329
scalar LocScenario.node[10].veinsmobility 	startTime 	75.1
scalar LocScenario.node[10].veinsmobility 	totalTime 	228
scalar LocScenario.node[10].veinsmobility 	stopTime 	303.2
scalar LocScenario.node[10].veinsmobility 	minSpeed 	10.450003120699
scalar LocScenario.node[10].veinsmobility 	maxSpeed 	10.499978804681
scalar LocScenario.node[10].veinsmobility 	totalDistance 	2394.7075425919
scalar LocScenario.node[10].veinsmobility 	totalCO2Emission 	393.61281941693
scalar LocScenario.node[15].appl 	generatedWSMs 	0
scalar LocScenario.node[15].appl 	receivedWSMs 	0
scalar LocScenario.node[15].appl 	generatedBSMs 	2040
scalar LocScenario.node[15].appl 	receivedBSMs 	8262
scalar LocScenario.node[15].appl 	generatedWSAs 	0
scalar LocScenario.node[15].appl 	receivedWSAs 	0
scalar LocScenario.node[15].appl 	rmseSUMGPS 	1179245.6165682
scalar LocScenario.node[15].appl 	rmseSUMCP 	683483.06575386
scalar LocScenario.node[15].appl 	delaySum 	0.92585985703583
scalar LocScenario.node[15].nic.phy80211p 	busyTime 	0.0042119999999998
scalar LocScenario.node[15].nic.mac1609_4 	ReceivedUnicastPackets 	0
scalar LocScenario.node[15].nic.mac1609_4 	ReceivedBroadcasts 	8262
scalar LocScenario.node[15].nic.mac1609_4 	SentPackets 	2040
scalar LocScenario.node[15].nic.mac1609_4 	SNIRLostPackets 	0
scalar LocScenario.node[15].nic.mac1609_4 	RXTXLostPackets 	0
scalar LocScenario.node[15].nic.mac1609_4 	TotalLostPackets 	0
scalar LocScenario.node[15].nic.mac1609_4 	DroppedPacketsInMac 	0
scalar LocScenario.node[15].nic.mac1609_4 	TooLittleTime 	0
scalar LocScenario.node[15].nic.mac1609_4 	TimesIntoBackoff 	2040
scalar LocScenario.node[15].nic.mac1609_4 	SlotsBackoff 	3118
scalar LocScenario.node[15].nic.mac1609_4 	NumInternalContention 	0
scalar LocScenario.node[15].nic.mac1609_4 	totalBusyTime 	1.073448
scalar LocScenario.node[15].veinsmobility 	startTime 	105.1
scalar LocScenario.node[15].veinsmobility 	totalTime 	203.9
scalar LocScenario.node[15].veinsmobility 	stopTime 	309.1
scalar LocScenario.node[15].veinsmobility 	minSpeed 	10.45001099587
scalar LocScenario.node[15].veinsmobility 	maxSpeed 	10.499999859976
scalar LocScenario.node[15].veinsmobility 	totalDistance 	2138.8180550348
scalar LocScenario.node[15].veinsmobility 	totalCO2Emission 	352.03853067063
scalar LocScenario.node[12].appl 	generatedWSMs 	0
scalar LocScenario.node[12].appl 	receivedWSMs 	0
scalar LocScenario.node[12].appl 	generatedBSMs 	2281
scalar LocScenario.node[12].appl 	receivedBSMs 	8640
scalar LocScenario.node[12].appl 	generatedWSAs 	0
scalar LocScenario.node[12].appl 	receivedWSAs 	0
scalar LocScenario.node[12].appl 	rmseSUMGPS 	34641.356660139
scalar LocScenario.node[12].appl 	rmseSUMCP 	320181.41770078
scalar LocScenario.node[12].appl 	delaySum 	0.97232231009248
scalar LocScenario.node[12].nic.phy80211p 	busyTime 	0.0039393248575184
scalar LocScenario.node[12].nic.mac1609_4 	ReceivedUnicastPackets 	0
scalar LocScenario.node[12].nic.mac1609_4 	ReceivedBroadcasts 	8640
scalar LocScenario.node[12].nic.mac1609_4 	SentPackets 	2281
scalar LocScenario.node[12].nic.mac1609_4 	SNIRLostPackets 	0
scalar LocScenario.node[12].nic.mac1609_4 	RXTXLostPackets 	0
scalar LocScenario.node[12].nic.mac1609_4 	TotalLostPackets 	0
scalar LocScenario.node[12].nic.mac1609_4 	DroppedPacketsInMac 	0
scalar LocScenario.node[12].nic.mac1609_4 	TooLittleTime 	0
scalar LocScenario.node[12].nic.mac1609_4 	TimesIntoBackoff 	2281
scalar LocScenario.node[12].nic.mac1609_4 	SlotsBackoff 	3470
scalar LocScenario.node[12].nic.mac1609_4 	NumInternalContention 	0
scalar LocScenario.node[12].nic.mac1609_4 	totalBusyTime 	1.138065
scalar LocScenario.node[12].veinsmobility 	startTime 	90.1
scalar LocScenario.node[12].veinsmobility 	totalTime 	228
scalar LocScenario.node[12].veinsmobility 	stopTime 	318.2
scalar LocScenario.node[12].veinsmobility 	minSpeed 	10.450016649824
scalar LocScenario.node[12].veinsmobility 	maxSpeed 	10.499999153428
scalar LocScenario.node[12].veinsmobility 	totalDistance 	2394.7770786721
scalar LocScenario.node[12].veinsmobility 	totalCO2Emission 	393.61376251671
scalar LocScenario.node[17].appl 	generatedWSMs 	0
scalar LocScenario.node[17].appl 	receivedWSMs 	0
scalar LocScenario.node[17].appl 	generatedBSMs 	2040
scalar LocScenario.node[17].appl 	receivedBSMs 	8459
scalar LocScenario.node[17].appl 	generatedWSAs 	0
scalar LocScenario.node[17].appl 	receivedWSAs 	0
scalar LocScenario.node[17].appl 	rmseSUMGPS 	666871.14058792
scalar LocScenario.node[17].appl 	rmseSUMCP 	759258.62944083
scalar LocScenario.node[17].appl 	delaySum 	0.95623780654165
scalar LocScenario.node[17].nic.phy80211p 	busyTime 	0.0043256862745096
scalar LocScenario.node[17].nic.mac1609_4 	ReceivedUnicastPackets 	0
scalar LocScenario.node[17].nic.mac1609_4 	ReceivedBroadcasts 	8459
scalar LocScenario.node[17].nic.mac1609_4 	SentPackets 	2040
scalar LocScenario.node[17].nic.mac1609_4 	SNIRLostPackets 	26
scalar LocScenario.node[17].nic.mac1609_4 	RXTXLostPackets 	0
scalar LocScenario.node[17].nic.mac1609_4 	TotalLostPackets 	26
scalar LocScenario.node[17].nic.mac1609_4 	DroppedPacketsInMac 	0
scalar LocScenario.node[17].nic.mac1609_4 	TooLittleTime 	0
scalar LocScenario.node[17].nic.mac1609_4 	TimesIntoBackoff 	2040
scalar LocScenario.node[17].nic.mac1609_4 	SlotsBackoff 	3134
scalar LocScenario.node[17].nic.mac1609_4 	NumInternalContention 	0
scalar LocScenario.node[17].nic.mac1609_4 	totalBusyTime 	1.09664
scalar LocScenario.node[17].veinsmobility 	startTime 	120.1
scalar LocScenario.node[17].veinsmobility 	totalTime 	203.9
scalar LocScenario.node[17].veinsmobility 	stopTime 	324.1
scalar LocScenario.node[17].veinsmobility 	minSpeed 	10.450058410002
scalar LocScenario.node[17].veinsmobility 	maxSpeed 	10.499982064904
scalar LocScenario.node[17].veinsmobility 	totalDistance 	2138.6749197802
scalar LocScenario.node[17].veinsmobility 	totalCO2Emission 	351.62217827904
scalar LocScenario.node[14].appl 	generatedWSMs 	0
scalar LocScenario.node[14].appl 	receivedWSMs 	0
scalar LocScenario.node[14].appl 	generatedBSMs 	2281
scalar LocScenario.node[14].appl 	receivedBSMs 	8859
scalar LocScenario.node[14].appl 	generatedWSAs 	0
scalar LocScenario.node[14].appl 	receivedWSAs 	0
scalar LocScenario.node[14].appl 	rmseSUMGPS 	55352.370800234
scalar LocScenario.node[14].appl 	rmseSUMCP 	388752.37217003
scalar LocScenario.node[14].appl 	delaySum 	3.4084129392537e+184
scalar LocScenario.node[14].nic.phy80211p 	busyTime 	0.0040391758000875
scalar LocScenario.node[14].nic.mac1609_4 	ReceivedUnicastPackets 	0
scalar LocScenario.node[14].nic.mac1609_4 	ReceivedBroadcasts 	8859
scalar LocScenario.node[14].nic.mac1609_4 	SentPackets 	2281
scalar LocScenario.node[14].nic.mac1609_4 	SNIRLostPackets 	0
scalar LocScenario.node[14].nic.mac1609_4 	RXTXLostPackets 	0
scalar LocScenario.node[14].nic.mac1609_4 	TotalLostPackets 	0
scalar LocScenario.node[14].nic.mac1609_4 	DroppedPacketsInMac 	0
scalar LocScenario.node[14].nic.mac1609_4 	TooLittleTime 	0
scalar LocScenario.node[14].nic.mac1609_4 	TimesIntoBackoff 	2281
scalar LocScenario.node[14].nic.mac1609_4 	SlotsBackoff 	3470
scalar LocScenario.node[14].nic.mac1609_4 	NumInternalContention 	0
scalar LocScenario.node[14].nic.mac1609_4 	totalBusyTime 	1.160841
scalar LocScenario.node[14].veinsmobility 	startTime 	105.1
scalar LocScenario.node[14].veinsmobility 	totalTime 	228
scalar LocScenario.node[14].veinsmobility 	stopTime 	333.2
scalar LocScenario.node[14].veinsmobility 	minSpeed 	10.450012831145
scalar LocScenario.node[14].veinsmobility 	maxSpeed 	10.499988981301
scalar LocScenario.node[14].veinsmobility 	totalDistance 	2394.6893471796
scalar LocScenario.node[14].veinsmobility 	totalCO2Emission 	394.1092672305
scalar LocScenario.node[19].appl 	generatedWSMs 	0
scalar LocScenario.node[19].appl 	receivedWSMs 	0
scalar LocScenario.node[19].appl 	generatedBSMs 	2040
scalar LocScenario.node[19].appl 	receivedBSMs 	8506
scalar LocScenario.node[19].appl 	generatedWSAs 	0
scalar LocScenario.node[19].appl 	receivedWSAs 	0
scalar LocScenario.node[19].appl 	rmseSUMGPS 	1626430.3624716
scalar LocScenario.node[19].appl 	rmseSUMCP 	454099.7613151
scalar LocScenario.node[19].appl 	delaySum 	0.9842868816645
scalar LocScenario.node[19].nic.phy80211p 	busyTime 	0.0044301960784311
scalar LocScenario.node[19].nic.mac1609_4 	ReceivedUnicastPackets 	0
scalar LocScenario.node[19].nic.mac1609_4 	ReceivedBroadcasts 	8506
scalar LocScenario.node[19].nic.mac1609_4 	SentPackets 	2040
scalar LocScenario.node[19].nic.mac1609_4 	SNIRLostPackets 	184
scalar LocScenario.node[19].nic.mac1609_4 	RXTXLostPackets 	0
scalar LocScenario.node[19].nic.mac1609_4 	TotalLostPackets 	184
scalar LocScenario.node[19].nic.mac1609_4 	DroppedPacketsInMac 	0
scalar LocScenario.node[19].nic.mac1609_4 	TooLittleTime 	0
scalar LocScenario.node[19].nic.mac1609_4 	TimesIntoBackoff 	2040
scalar LocScenario.node[19].nic.mac1609_4 	SlotsBackoff 	3072
scalar LocScenario.node[19].nic.mac1609_4 	NumInternalContention 	0
scalar LocScenario.node[19].nic.mac1609_4 	totalBusyTime 	1.109848
scalar LocScenario.node[19].veinsmobility 	startTime 	135.1
scalar LocScenario.node[19].veinsmobility 	totalTime 	203.9
scalar LocScenario.node[19].veinsmobility 	stopTime 	339.1
scalar LocScenario.node[19].veinsmobility 	minSpeed 	10.450009899051
scalar LocScenario.node[19].veinsmobility 	maxSpeed 	10.499975638301
scalar LocScenario.node[19].veinsmobility 	totalDistance 	2138.7178119036
scalar LocScenario.node[19].veinsmobility 	totalCO2Emission 	352.6768686223
scalar LocScenario.node[16].appl 	generatedWSMs 	0
scalar LocScenario.node[16].appl 	receivedWSMs 	0
scalar LocScenario.node[16].appl 	generatedBSMs 	2281
scalar LocScenario.node[16].appl 	receivedBSMs 	9075
scalar LocScenario.node[16].appl 	generatedWSAs 	0
scalar LocScenario.node[16].appl 	receivedWSAs 	0
scalar LocScenario.node[16].appl 	rmseSUMGPS 	938379.64134673
scalar LocScenario.node[16].appl 	rmseSUMCP 	425267.37766645
scalar LocScenario.node[16].appl 	delaySum 	1.0265887014756
scalar LocScenario.node[16].nic.phy80211p 	busyTime 	0.0041376589215254
scalar LocScenario.node[16].nic.mac1609_4 	ReceivedUnicastPackets 	0
scalar LocScenario.node[16].nic.mac1609_4 	ReceivedBroadcasts 	9075
scalar LocScenario.node[16].nic.mac1609_4 	SentPackets 	2281
scalar LocScenario.node[16].nic.mac1609_4 	SNIRLostPackets 	0
scalar LocScenario.node[16].nic.mac1609_4 	RXTXLostPackets 	0
scalar LocScenario.node[16].nic.mac1609_4 	TotalLostPackets 	0
scalar LocScenario.node[16].nic.mac1609_4 	DroppedPacketsInMac 	0
scalar LocScenario.node[16].nic.mac1609_4 	TooLittleTime 	0
scalar LocScenario.node[16].nic.mac1609_4 	TimesIntoBackoff 	2281
scalar LocScenario.node[16].nic.mac1609_4 	SlotsBackoff 	3479
scalar LocScenario.node[16].nic.mac1609_4 	NumInternalContention 	0
scalar LocScenario.node[16].nic.mac1609_4 	totalBusyTime 	1.183305
scalar LocScenario.node[16].veinsmobility 	startTime 	120.1
scalar LocScenario.node[16].veinsmobility 	totalTime 	228
scalar LocScenario.node[16].veinsmobility 	stopTime 	348.2
scalar LocScenario.node[16].veinsmobility 	minSpeed 	10.450018820912
scalar LocScenario.node[16].veinsmobility 	maxSpeed 	10.49996939
scalar LocScenario.node[16].veinsmobility 	totalDistance 	2388.8022798872
scalar LocScenario.node[16].veinsmobility 	totalCO2Emission 	394.14193732381
scalar LocScenario.node[21].appl 	generatedWSMs 	0
scalar LocScenario.node[21].appl 	receivedWSMs 	0
scalar LocScenario.node[21].appl 	generatedBSMs 	2040
scalar LocScenario.node[21].appl 	receivedBSMs 	8887
scalar LocScenario.node[21].appl 	generatedWSAs 	0
scalar LocScenario.node[21].appl 	receivedWSAs 	0
scalar LocScenario.node[21].appl 	rmseSUMGPS 	868401.02832784
scalar LocScenario.node[21].appl 	rmseSUMCP 	707502.09758734
scalar LocScenario.node[21].appl 	delaySum 	1.0041286589839
scalar LocScenario.node[21].nic.phy80211p 	busyTime 	0.0045306274509801
scalar LocScenario.node[21].nic.mac1609_4 	ReceivedUnicastPackets 	0
scalar LocScenario.node[21].nic.mac1609_4 	ReceivedBroadcasts 	8887
scalar LocScenario.node[21].nic.mac1609_4 	SentPackets 	2040
scalar LocScenario.node[21].nic.mac1609_4 	SNIRLostPackets 	0
scalar LocScenario.node[21].nic.mac1609_4 	RXTXLostPackets 	0
scalar LocScenario.node[21].nic.mac1609_4 	TotalLostPackets 	0
scalar LocScenario.node[21].nic.mac1609_4 	DroppedPacketsInMac 	0
scalar LocScenario.node[21].nic.mac1609_4 	TooLittleTime 	0
scalar LocScenario.node[21].nic.mac1609_4 	TimesIntoBackoff 	2256
scalar LocScenario.node[21].nic.mac1609_4 	SlotsBackoff 	3391
scalar LocScenario.node[21].nic.mac1609_4 	NumInternalContention 	0
scalar LocScenario.node[21].nic.mac1609_4 	totalBusyTime 	1.138448
scalar LocScenario.node[21].veinsmobility 	startTime 	150.1
scalar LocScenario.node[21].veinsmobility 	totalTime 	203.9
scalar LocScenario.node[21].veinsmobility 	stopTime 	354.1
scalar LocScenario.node[21].veinsmobility 	minSpeed 	10.450059525843
scalar LocScenario.node[21].veinsmobility 	maxSpeed 	10.499968013295
scalar LocScenario.node[21].veinsmobility 	totalDistance 	2133.8220219062
scalar LocScenario.node[21].veinsmobility 	totalCO2Emission 	351.02643790672
scalar LocScenario.node[18].appl 	generatedWSMs 	0
scalar LocScenario.node[18].appl 	receivedWSMs 	0
scalar LocScenario.node[18].appl 	generatedBSMs 	2281
scalar LocScenario.node[18].appl 	receivedBSMs 	9299
scalar LocScenario.node[18].appl 	generatedWSAs 	0
scalar LocScenario.node[18].appl 	receivedWSAs 	0
scalar LocScenario.node[18].appl 	rmseSUMGPS 	41891.670730819
scalar LocScenario.node[18].appl 	rmseSUMCP 	423067.31655038
scalar LocScenario.node[18].appl 	delaySum 	-1.2501343164761e+149
scalar LocScenario.node[18].nic.phy80211p 	busyTime 	0.0042397895659796
scalar LocScenario.node[18].nic.mac1609_4 	ReceivedUnicastPackets 	0
scalar LocScenario.node[18].nic.mac1609_4 	ReceivedBroadcasts 	9299
scalar LocScenario.node[18].nic.mac1609_4 	SentPackets 	2281
scalar LocScenario.node[18].nic.mac1609_4 	SNIRLostPackets 	0
scalar LocScenario.node[18].nic.mac1609_4 	RXTXLostPackets 	0
scalar LocScenario.node[18].nic.mac1609_4 	TotalLostPackets 	0
scalar LocScenario.node[18].nic.mac1609_4 	DroppedPacketsInMac 	0
scalar LocScenario.node[18].nic.mac1609_4 	TooLittleTime 	0
scalar LocScenario.node[18].nic.mac1609_4 	TimesIntoBackoff 	2281
scalar LocScenario.node[18].nic.mac1609_4 	SlotsBackoff 	3357
scalar LocScenario.node[18].nic.mac1609_4 	NumInternalContention 	0
scalar LocScenario.node[18].nic.mac1609_4 	totalBusyTime 	1.206601
scalar LocScenario.node[18].veinsmobility 	startTime 	135.1
scalar LocScenario.node[18].veinsmobility 	totalTime 	228
scalar LocScenario.node[18].veinsmobility 	stopTime 	363.2
scalar LocScenario.node[18].veinsmobility 	minSpeed 	10.45001556162
scalar LocScenario.node[18].veinsmobility 	maxSpeed 	10.499972187262
scalar LocScenario.node[18].veinsmobility 	totalDistance 	2394.7690783984
scalar LocScenario.node[18].veinsmobility 	totalCO2Emission 	393.35111129347
scalar LocScenario.node[23].appl 	generatedWSMs 	0
scalar LocScenario.node[23].appl 	receivedWSMs 	0
scalar LocScenario.node[23].appl 	generatedBSMs 	2040
scalar LocScenario.node[23].appl 	receivedBSMs 	8935
scalar LocScenario.node[23].appl 	generatedWSAs 	0
scalar LocScenario.node[23].appl 	receivedWSAs 	0
scalar LocScenario.node[23].appl 	rmseSUMGPS 	940909.60765516
scalar LocScenario.node[23].appl 	rmseSUMCP 	613460.703135
scalar LocScenario.node[23].appl 	delaySum 	1.0325983587166
scalar LocScenario.node[23].nic.phy80211p 	busyTime 	0.0046366666666664
scalar LocScenario.node[23].nic.mac1609_4 	ReceivedUnicastPackets 	0
scalar LocScenario.node[23].nic.mac1609_4 	ReceivedBroadcasts 	8935
scalar LocScenario.node[23].nic.mac1609_4 	SentPackets 	2040
scalar LocScenario.node[23].nic.mac1609_4 	SNIRLostPackets 	160
scalar LocScenario.node[23].nic.mac1609_4 	RXTXLostPackets 	0
scalar LocScenario.node[23].nic.mac1609_4 	TotalLostPackets 	160
scalar LocScenario.node[23].nic.mac1609_4 	DroppedPacketsInMac 	0
scalar LocScenario.node[23].nic.mac1609_4 	TooLittleTime 	0
scalar LocScenario.node[23].nic.mac1609_4 	TimesIntoBackoff 	2040
scalar LocScenario.node[23].nic.mac1609_4 	SlotsBackoff 	3055
scalar LocScenario.node[23].nic.mac1609_4 	NumInternalContention 	0
scalar LocScenario.node[23].nic.mac1609_4 	totalBusyTime 	1.152592
scalar LocScenario.node[23].veinsmobility 	startTime 	165.1
scalar LocScenario.node[23].veinsmobility 	totalTime 	203.9
scalar LocScenario.node[23].veinsmobility 	stopTime 	369.1
scalar LocScenario.node[23].veinsmobility 	minSpeed 	10.450042180263
scalar LocScenario.node[23].veinsmobility 	maxSpeed 	10.499959443277
scalar LocScenario.node[23].veinsmobility 	totalDistance 	2138.7695690184
scalar LocScenario.node[23].veinsmobility 	totalCO2Emission 	351.9007686677
scalar LocScenario.node[20].appl 	generatedWSMs 	0
scalar LocScenario.node[20].appl 	receivedWSMs 	0
scalar LocScenario.node[20].appl 	generatedBSMs 	2281
scalar LocScenario.node[20].appl 	receivedBSMs 	9520
scalar LocScenario.node[20].appl 	generatedWSAs 	0
scalar LocScenario.node[20].appl 	receivedWSAs 	0
scalar LocScenario.node[20].appl 	rmseSUMGPS 	46880.891782112
scalar LocScenario.node[20].appl 	rmseSUMCP 	431595.35715709
scalar LocScenario.node[20].appl 	delaySum 	-1.0644553563326e+200
scalar LocScenario.node[20].nic.phy80211p 	busyTime 	0.0043405523893027
scalar LocScenario.node[20].nic.mac1609_4 	ReceivedUnicastPackets 	0
scalar LocScenario.node[20].nic.mac1609_4 	ReceivedBroadcasts 	9520
scalar LocScenario.node[20].nic.mac1609_4 	SentPackets 	2281
scalar LocScenario.node[20].nic.mac1609_4 	SNIRLostPackets 	0
scalar LocScenario.node[20].nic.mac1609_4 	RXTXLostPackets 	0
scalar LocScenario.node[20].nic.mac1609_4 	TotalLostPackets 	0
scalar LocScenario.node[20].nic.mac1609_4 	DroppedPacketsInMac 	0
scalar LocScenario.node[20].nic.mac1609_4 	TooLittleTime 	0
scalar LocScenario.node[20].nic.mac1609_4 	TimesIntoBackoff 	2281
scalar LocScenario.node[20].nic.mac1609_4 	SlotsBackoff 	3382
scalar LocScenario.node[20].nic.mac1609_4 	NumInternalContention 	0
scalar LocScenario.node[20].nic.mac1609_4 	totalBusyTime 	1.229585
scalar LocScenario.node[20].veinsmobility 	startTime 	150.1
scalar LocScenario.node[20].veinsmobility 	totalTime 	228
scalar LocScenario.node[20].veinsmobility 	stopTime 	378.2
scalar LocScenario.node[20].veinsmobility 	minSpeed 	10.450010885007
scalar LocScenario.node[20].veinsmobility 	maxSpeed 	10.499968898564
scalar LocScenario.node[20].veinsmobility 	totalDistance 	2392.2441625714
scalar LocScenario.node[20].veinsmobility 	totalCO2Emission 	393.46564928644
scalar LocScenario.node[25].appl 	generatedWSMs 	0
scalar LocScenario.node[25].appl 	receivedWSMs 	0
scalar LocScenario.node[25].appl 	generatedBSMs 	2040
scalar LocScenario.node[25].appl 	receivedBSMs 	9258
scalar LocScenario.node[25].appl 	generatedWSAs 	0
scalar LocScenario.node[25].appl 	receivedWSAs 	0
scalar LocScenario.node[25].appl 	rmseSUMGPS 	625258.42826101
scalar LocScenario.node[25].appl 	rmseSUMCP 	1053401.5721277
scalar LocScenario.node[25].appl 	delaySum 	1.0364008103134
scalar LocScenario.node[25].nic.phy80211p 	busyTime 	0.0047330196078429
scalar LocScenario.node[25].nic.mac1609_4 	ReceivedUnicastPackets 	0
scalar LocScenario.node[25].nic.mac1609_4 	ReceivedBroadcasts 	9258
scalar LocScenario.node[25].nic.mac1609_4 	SentPackets 	2040
scalar LocScenario.node[25].nic.mac1609_4 	SNIRLostPackets 	26
scalar LocScenario.node[25].nic.mac1609_4 	RXTXLostPackets 	0
scalar LocScenario.node[25].nic.mac1609_4 	TotalLostPackets 	26
scalar LocScenario.node[25].nic.mac1609_4 	DroppedPacketsInMac 	0
scalar LocScenario.node[25].nic.mac1609_4 	TooLittleTime 	0
scalar LocScenario.node[25].nic.mac1609_4 	TimesIntoBackoff 	2040
scalar LocScenario.node[25].nic.mac1609_4 	SlotsBackoff 	3000
scalar LocScenario.node[25].nic.mac1609_4 	NumInternalContention 	0
scalar LocScenario.node[25].nic.mac1609_4 	totalBusyTime 	1.179736
scalar LocScenario.node[25].veinsmobility 	startTime 	180.1
scalar LocScenario.node[25].veinsmobility 	totalTime 	203.9
scalar LocScenario.node[25].veinsmobility 	stopTime 	384.1
scalar LocScenario.node[25].veinsmobility 	minSpeed 	10.450083423092
scalar LocScenario.node[25].veinsmobility 	maxSpeed 	10.499997420225
scalar LocScenario.node[25].veinsmobility 	totalDistance 	2133.8451918917
scalar LocScenario.node[25].veinsmobility 	totalCO2Emission 	352.00339771984
scalar LocScenario.node[22].appl 	generatedWSMs 	0
scalar LocScenario.node[22].appl 	receivedWSMs 	0
scalar LocScenario.node[22].appl 	generatedBSMs 	2281
scalar LocScenario.node[22].appl 	receivedBSMs 	9733
scalar LocScenario.node[22].appl 	generatedWSAs 	0
scalar LocScenario.node[22].appl 	receivedWSAs 	0
scalar LocScenario.node[22].appl 	rmseSUMGPS 	1046542.3397246
scalar LocScenario.node[22].appl 	rmseSUMCP 	451995.32121498
scalar LocScenario.node[22].appl 	delaySum 	3.7104025629993e+74
scalar LocScenario.node[22].nic.phy80211p 	busyTime 	0.0044376676896096
scalar LocScenario.node[22].nic.mac1609_4 	ReceivedUnicastPackets 	0
scalar LocScenario.node[22].nic.mac1609_4 	ReceivedBroadcasts 	9733
scalar LocScenario.node[22].nic.mac1609_4 	SentPackets 	2281
scalar LocScenario.node[22].nic.mac1609_4 	SNIRLostPackets 	0
scalar LocScenario.node[22].nic.mac1609_4 	RXTXLostPackets 	0
scalar LocScenario.node[22].nic.mac1609_4 	TotalLostPackets 	0
scalar LocScenario.node[22].nic.mac1609_4 	DroppedPacketsInMac 	0
scalar LocScenario.node[22].nic.mac1609_4 	TooLittleTime 	0
scalar LocScenario.node[22].nic.mac1609_4 	TimesIntoBackoff 	2281
scalar LocScenario.node[22].nic.mac1609_4 	SlotsBackoff 	3456
scalar LocScenario.node[22].nic.mac1609_4 	NumInternalContention 	0
scalar LocScenario.node[22].nic.mac1609_4 	totalBusyTime 	1.251737
scalar LocScenario.node[22].veinsmobility 	startTime 	165.1
scalar LocScenario.node[22].veinsmobility 	totalTime 	228
scalar LocScenario.node[22].veinsmobility 	stopTime 	393.2
scalar LocScenario.node[22].veinsmobility 	minSpeed 	10.45000710832
scalar LocScenario.node[22].veinsmobility 	maxSpeed 	10.499995731853
scalar LocScenario.node[22].veinsmobility 	totalDistance 	2388.9124009156
scalar LocScenario.node[22].veinsmobility 	totalCO2Emission 	393.87852522789
scalar LocScenario.node[27].appl 	generatedWSMs 	0
scalar LocScenario.node[27].appl 	receivedWSMs 	0
scalar LocScenario.node[27].appl 	generatedBSMs 	2040
scalar LocScenario.node[27].appl 	receivedBSMs 	9442
scalar LocScenario.node[27].appl 	generatedWSAs 	0
scalar LocScenario.node[27].appl 	receivedWSAs 	0
scalar LocScenario.node[27].appl 	rmseSUMGPS 	764933.76374118
scalar LocScenario.node[27].appl 	rmseSUMCP 	730394.29550363
scalar LocScenario.node[27].appl 	delaySum 	1.0563910399296
scalar LocScenario.node[27].nic.phy80211p 	busyTime 	0.0048140784313723
scalar LocScenario.node[27].nic.mac1609_4 	ReceivedUnicastPackets 	0
scalar LocScenario.node[27].nic.mac1609_4 	ReceivedBroadcasts 	9442
scalar LocScenario.node[27].nic.mac1609_4 	SentPackets 	2040
scalar LocScenario.node[27].nic.mac1609_4 	SNIRLostPackets 	1
scalar LocScenario.node[27].nic.mac1609_4 	RXTXLostPackets 	0
scalar LocScenario.node[27].nic.mac1609_4 	TotalLostPackets 	1
scalar LocScenario.node[27].nic.mac1609_4 	DroppedPacketsInMac 	0
scalar LocScenario.node[27].nic.mac1609_4 	TooLittleTime 	0
scalar LocScenario.node[27].nic.mac1609_4 	TimesIntoBackoff 	2040
scalar LocScenario.node[27].nic.mac1609_4 	SlotsBackoff 	2988
scalar LocScenario.node[27].nic.mac1609_4 	NumInternalContention 	0
scalar LocScenario.node[27].nic.mac1609_4 	totalBusyTime 	1.196272
scalar LocScenario.node[27].veinsmobility 	startTime 	195.1
scalar LocScenario.node[27].veinsmobility 	totalTime 	203.9
scalar LocScenario.node[27].veinsmobility 	stopTime 	399.1
scalar LocScenario.node[27].veinsmobility 	minSpeed 	10.450002686982
scalar LocScenario.node[27].veinsmobility 	maxSpeed 	10.499994077266
scalar LocScenario.node[27].veinsmobility 	totalDistance 	2138.6840842521
scalar LocScenario.node[27].veinsmobility 	totalCO2Emission 	351.36824439097
scalar LocScenario.node[24].appl 	generatedWSMs 	0
scalar LocScenario.node[24].appl 	receivedWSMs 	0
scalar LocScenario.node[24].appl 	generatedBSMs 	2281
scalar LocScenario.node[24].appl 	receivedBSMs 	9949
scalar LocScenario.node[24].appl 	generatedWSAs 	0
scalar LocScenario.node[24].appl 	receivedWSAs 	0
scalar LocScenario.node[24].appl 	rmseSUMGPS 	25593.899031205
scalar LocScenario.node[24].appl 	rmseSUMCP 	431514.98786641
scalar LocScenario.node[24].appl 	delaySum 	-3.0177145138075e+204
scalar LocScenario.node[24].nic.phy80211p 	busyTime 	0.0045361508110477
scalar LocScenario.node[24].nic.mac1609_4 	ReceivedUnicastPackets 	0
scalar LocScenario.node[24].nic.mac1609_4 	ReceivedBroadcasts 	9949
scalar LocScenario.node[24].nic.mac1609_4 	SentPackets 	2281
scalar LocScenario.node[24].nic.mac1609_4 	SNIRLostPackets 	0
scalar LocScenario.node[24].nic.mac1609_4 	RXTXLostPackets 	0
scalar LocScenario.node[24].nic.mac1609_4 	TotalLostPackets 	0
scalar LocScenario.node[24].nic.mac1609_4 	DroppedPacketsInMac 	0
scalar LocScenario.node[24].nic.mac1609_4 	TooLittleTime 	0
scalar LocScenario.node[24].nic.mac1609_4 	TimesIntoBackoff 	2281
scalar LocScenario.node[24].nic.mac1609_4 	SlotsBackoff 	3358
scalar LocScenario.node[24].nic.mac1609_4 	NumInternalContention 	0
scalar LocScenario.node[24].nic.mac1609_4 	totalBusyTime 	1.274201
scalar LocScenario.node[24].veinsmobility 	startTime 	180.1
scalar LocScenario.node[24].veinsmobility 	totalTime 	228
scalar LocScenario.node[24].veinsmobility 	stopTime 	408.2
scalar LocScenario.node[24].veinsmobility 	minSpeed 	10.450014423509
scalar LocScenario.node[24].veinsmobility 	maxSpeed 	10.499938346201
scalar LocScenario.node[24].veinsmobility 	totalDistance 	2392.353439769
scalar LocScenario.node[24].veinsmobility 	totalCO2Emission 	393.50315084927
scalar LocScenario.node[29].appl 	generatedWSMs 	0
scalar LocScenario.node[29].appl 	receivedWSMs 	0
scalar LocScenario.node[29].appl 	generatedBSMs 	2040
scalar LocScenario.node[29].appl 	receivedBSMs 	9535
scalar LocScenario.node[29].appl 	generatedWSAs 	0
scalar LocScenario.node[29].appl 	receivedWSAs 	0
scalar LocScenario.node[29].appl 	rmseSUMGPS 	744303.79918098
scalar LocScenario.node[29].appl 	rmseSUMCP 	462361.68037434
scalar LocScenario.node[29].appl 	delaySum 	1.0673942866424
scalar LocScenario.node[29].nic.phy80211p 	busyTime 	0.0048609803921566
scalar LocScenario.node[29].nic.mac1609_4 	ReceivedUnicastPackets 	0
scalar LocScenario.node[29].nic.mac1609_4 	ReceivedBroadcasts 	9535
scalar LocScenario.node[29].nic.mac1609_4 	SentPackets 	2040
scalar LocScenario.node[29].nic.mac1609_4 	SNIRLostPackets 	0
scalar LocScenario.node[29].nic.mac1609_4 	RXTXLostPackets 	0
scalar LocScenario.node[29].nic.mac1609_4 	TotalLostPackets 	0
scalar LocScenario.node[29].nic.mac1609_4 	DroppedPacketsInMac 	0
scalar LocScenario.node[29].nic.mac1609_4 	TooLittleTime 	0
scalar LocScenario.node[29].nic.mac1609_4 	TimesIntoBackoff 	2040
scalar LocScenario.node[29].nic.mac1609_4 	SlotsBackoff 	3041
scalar LocScenario.node[29].nic.mac1609_4 	NumInternalContention 	0
scalar LocScenario.node[29].nic.mac1609_4 	totalBusyTime 	1.20584
scalar LocScenario.node[29].veinsmobility 	startTime 	210.1
scalar LocScenario.node[29].veinsmobility 	totalTime 	203.9
scalar LocScenario.node[29].veinsmobility 	stopTime 	414.1
scalar LocScenario.node[29].veinsmobility 	minSpeed 	10.450023664685
scalar LocScenario.node[29].veinsmobility 	maxSpeed 	10.499995182431
scalar LocScenario.node[29].veinsmobility 	totalDistance 	2133.8262218322
scalar LocScenario.node[29].veinsmobility 	totalCO2Emission 	352.29759158338
scalar LocScenario.node[26].appl 	generatedWSMs 	0
scalar LocScenario.node[26].appl 	receivedWSMs 	0
scalar LocScenario.node[26].appl 	generatedBSMs 	2281
scalar LocScenario.node[26].appl 	receivedBSMs 	10040
scalar LocScenario.node[26].appl 	generatedWSAs 	0
scalar LocScenario.node[26].appl 	receivedWSAs 	0
scalar LocScenario.node[26].appl 	rmseSUMGPS 	69131.707741675
scalar LocScenario.node[26].appl 	rmseSUMCP 	485441.27794586
scalar LocScenario.node[26].appl 	delaySum 	1.1236694128552
scalar LocScenario.node[26].nic.phy80211p 	busyTime 	0.0045776413853573
scalar LocScenario.node[26].nic.mac1609_4 	ReceivedUnicastPackets 	0
scalar LocScenario.node[26].nic.mac1609_4 	ReceivedBroadcasts 	10040
scalar LocScenario.node[26].nic.mac1609_4 	SentPackets 	2281
scalar LocScenario.node[26].nic.mac1609_4 	SNIRLostPackets 	0
scalar LocScenario.node[26].nic.mac1609_4 	RXTXLostPackets 	0
scalar LocScenario.node[26].nic.mac1609_4 	TotalLostPackets 	0
scalar LocScenario.node[26].nic.mac1609_4 	DroppedPacketsInMac 	0
scalar LocScenario.node[26].nic.mac1609_4 	TooLittleTime 	0
scalar LocScenario.node[26].nic.mac1609_4 	TimesIntoBackoff 	2281
scalar LocScenario.node[26].nic.mac1609_4 	SlotsBackoff 	3348
scalar LocScenario.node[26].nic.mac1609_4 	NumInternalContention 	0
scalar LocScenario.node[26].nic.mac1609_4 	totalBusyTime 	1.283665
scalar LocScenario.node[26].veinsmobility 	startTime 	195.1
scalar LocScenario.node[26].veinsmobility 	totalTime 	228
scalar LocScenario.node[26].veinsmobility 	stopTime 	423.2
scalar LocScenario.node[26].veinsmobility 	minSpeed 	10.450054593978
scalar LocScenario.node[26].veinsmobility 	maxSpeed 	10.499936335918
scalar LocScenario.node[26].veinsmobility 	totalDistance 	2394.6352155626
scalar LocScenario.node[26].veinsmobility 	totalCO2Emission 	393.61528465932
scalar LocScenario.node[31].appl 	generatedWSMs 	0
scalar LocScenario.node[31].appl 	receivedWSMs 	0
scalar LocScenario.node[31].appl 	generatedBSMs 	2040
scalar LocScenario.node[31].appl 	receivedBSMs 	9558
scalar LocScenario.node[31].appl 	generatedWSAs 	0
scalar LocScenario.node[31].appl 	receivedWSAs 	0
scalar LocScenario.node[31].appl 	rmseSUMGPS 	684058.89382312
scalar LocScenario.node[31].appl 	rmseSUMCP 	1556681.4673697
scalar LocScenario.node[31].appl 	delaySum 	1.0705801021433
scalar LocScenario.node[31].nic.phy80211p 	busyTime 	0.0048727058823527
scalar LocScenario.node[31].nic.mac1609_4 	ReceivedUnicastPackets 	0
scalar LocScenario.node[31].nic.mac1609_4 	ReceivedBroadcasts 	9558
scalar LocScenario.node[31].nic.mac1609_4 	SentPackets 	2040
scalar LocScenario.node[31].nic.mac1609_4 	SNIRLostPackets 	0
scalar LocScenario.node[31].nic.mac1609_4 	RXTXLostPackets 	0
scalar LocScenario.node[31].nic.mac1609_4 	TotalLostPackets 	0
scalar LocScenario.node[31].nic.mac1609_4 	DroppedPacketsInMac 	0
scalar LocScenario.node[31].nic.mac1609_4 	TooLittleTime 	0
scalar LocScenario.node[31].nic.mac1609_4 	TimesIntoBackoff 	2040
scalar LocScenario.node[31].nic.mac1609_4 	SlotsBackoff 	3097
scalar LocScenario.node[31].nic.mac1609_4 	NumInternalContention 	0
scalar LocScenario.node[31].nic.mac1609_4 	totalBusyTime 	1.208232
scalar LocScenario.node[31].veinsmobility 	startTime 	225.1
scalar LocScenario.node[31].veinsmobility 	totalTime 	203.9
scalar LocScenario.node[31].veinsmobility 	stopTime 	429.1
scalar LocScenario.node[31].veinsmobility 	minSpeed 	10.450073575473
scalar LocScenario.node[31].veinsmobility 	maxSpeed 	10.499993018724
scalar LocScenario.node[31].veinsmobility 	totalDistance 	2138.722773954
scalar LocScenario.node[31].veinsmobility 	totalCO2Emission 	351.94136929106
scalar LocScenario.node[28].appl 	generatedWSMs 	0
scalar LocScenario.node[28].appl 	receivedWSMs 	0
scalar LocScenario.node[28].appl 	generatedBSMs 	2281
scalar LocScenario.node[28].appl 	receivedBSMs 	10037
scalar LocScenario.node[28].appl 	generatedWSAs 	0
scalar LocScenario.node[28].appl 	receivedWSAs 	0
scalar LocScenario.node[28].appl 	rmseSUMGPS 	53630.798311827
scalar LocScenario.node[28].appl 	rmseSUMCP 	476458.48447421
scalar LocScenario.node[28].appl 	delaySum 	1.1233868046879
scalar LocScenario.node[28].nic.phy80211p 	busyTime 	0.0045762735642262
scalar LocScenario.node[28].nic.mac1609_4 	ReceivedUnicastPackets 	0
scalar LocScenario.node[28].nic.mac1609_4 	ReceivedBroadcasts 	10037
scalar LocScenario.node[28].nic.mac1609_4 	SentPackets 	2281
scalar LocScenario.node[28].nic.mac1609_4 	SNIRLostPackets 	0
scalar LocScenario.node[28].nic.mac1609_4 	RXTXLostPackets 	0
scalar LocScenario.node[28].nic.mac1609_4 	TotalLostPackets 	0
scalar LocScenario.node[28].nic.mac1609_4 	DroppedPacketsInMac 	0
scalar LocScenario.node[28].nic.mac1609_4 	TooLittleTime 	0
scalar LocScenario.node[28].nic.mac1609_4 	TimesIntoBackoff 	2281
scalar LocScenario.node[28].nic.mac1609_4 	SlotsBackoff 	3510
scalar LocScenario.node[28].nic.mac1609_4 	NumInternalContention 	0
scalar LocScenario.node[28].nic.mac1609_4 	totalBusyTime 	1.283353
scalar LocScenario.node[28].veinsmobility 	startTime 	210.1
scalar LocScenario.node[28].veinsmobility 	totalTime 	228
scalar LocScenario.node[28].veinsmobility 	stopTime 	438.2
scalar LocScenario.node[28].veinsmobility 	minSpeed 	10.450004619302
scalar LocScenario.node[28].veinsmobility 	maxSpeed 	10.499995228648
scalar LocScenario.node[28].veinsmobility 	totalDistance 	2392.3339676417
scalar LocScenario.node[28].veinsmobility 	totalCO2Emission 	393.94647132074
scalar LocScenario.node[33].appl 	generatedWSMs 	0
scalar LocScenario.node[33].appl 	receivedWSMs 	0
scalar LocScenario.node[33].appl 	generatedBSMs 	2040
scalar LocScenario.node[33].appl 	receivedBSMs 	9556
scalar LocScenario.node[33].appl 	generatedWSAs 	0
scalar LocScenario.node[33].appl 	receivedWSAs 	0
scalar LocScenario.node[33].appl 	rmseSUMGPS 	785553.54742632
scalar LocScenario.node[33].appl 	rmseSUMCP 	485979.40108154
scalar LocScenario.node[33].appl 	delaySum 	1.0702503313984
scalar LocScenario.node[33].nic.phy80211p 	busyTime 	0.0048716862745095
scalar LocScenario.node[33].nic.mac1609_4 	ReceivedUnicastPackets 	0
scalar LocScenario.node[33].nic.mac1609_4 	ReceivedBroadcasts 	9556
scalar LocScenario.node[33].nic.mac1609_4 	SentPackets 	2040
scalar LocScenario.node[33].nic.mac1609_4 	SNIRLostPackets 	0
scalar LocScenario.node[33].nic.mac1609_4 	RXTXLostPackets 	0
scalar LocScenario.node[33].nic.mac1609_4 	TotalLostPackets 	0
scalar LocScenario.node[33].nic.mac1609_4 	DroppedPacketsInMac 	0
scalar LocScenario.node[33].nic.mac1609_4 	TooLittleTime 	0
scalar LocScenario.node[33].nic.mac1609_4 	TimesIntoBackoff 	2040
scalar LocScenario.node[33].nic.mac1609_4 	SlotsBackoff 	3101
scalar LocScenario.node[33].nic.mac1609_4 	NumInternalContention 	0
scalar LocScenario.node[33].nic.mac1609_4 	totalBusyTime 	1.208024
scalar LocScenario.node[33].veinsmobility 	startTime 	240.1
scalar LocScenario.node[33].veinsmobility 	totalTime 	203.9
scalar LocScenario.node[33].veinsmobility 	stopTime 	444.1
scalar LocScenario.node[33].veinsmobility 	minSpeed 	10.450003195391
scalar LocScenario.node[33].veinsmobility 	maxSpeed 	10.499972848699
scalar LocScenario.node[33].veinsmobility 	totalDistance 	2138.7752151242
scalar LocScenario.node[33].veinsmobility 	totalCO2Emission 	352.20965570201
scalar LocScenario.node[30].appl 	generatedWSMs 	0
scalar LocScenario.node[30].appl 	receivedWSMs 	0
scalar LocScenario.node[30].appl 	generatedBSMs 	2281
scalar LocScenario.node[30].appl 	receivedBSMs 	10008
scalar LocScenario.node[30].appl 	generatedWSAs 	0
scalar LocScenario.node[30].appl 	receivedWSAs 	0
scalar LocScenario.node[30].appl 	rmseSUMGPS 	784084.61362961
scalar LocScenario.node[30].appl 	rmseSUMCP 	503528.23876522
scalar LocScenario.node[30].appl 	delaySum 	1.1297032132595
scalar LocScenario.node[30].nic.phy80211p 	busyTime 	0.0045762735642262
scalar LocScenario.node[30].nic.mac1609_4 	ReceivedUnicastPackets 	0
scalar LocScenario.node[30].nic.mac1609_4 	ReceivedBroadcasts 	10008
scalar LocScenario.node[30].nic.mac1609_4 	SentPackets 	2281
scalar LocScenario.node[30].nic.mac1609_4 	SNIRLostPackets 	29
scalar LocScenario.node[30].nic.mac1609_4 	RXTXLostPackets 	0
scalar LocScenario.node[30].nic.mac1609_4 	TotalLostPackets 	29
scalar LocScenario.node[30].nic.mac1609_4 	DroppedPacketsInMac 	0
scalar LocScenario.node[30].nic.mac1609_4 	TooLittleTime 	0
scalar LocScenario.node[30].nic.mac1609_4 	TimesIntoBackoff 	2281
scalar LocScenario.node[30].nic.mac1609_4 	SlotsBackoff 	3481
scalar LocScenario.node[30].nic.mac1609_4 	NumInternalContention 	0
scalar LocScenario.node[30].nic.mac1609_4 	totalBusyTime 	1.283353
scalar LocScenario.node[30].veinsmobility 	startTime 	225.1
scalar LocScenario.node[30].veinsmobility 	totalTime 	228
scalar LocScenario.node[30].veinsmobility 	stopTime 	453.2
scalar LocScenario.node[30].veinsmobility 	minSpeed 	10.450000796397
scalar LocScenario.node[30].veinsmobility 	maxSpeed 	10.499992680899
scalar LocScenario.node[30].veinsmobility 	totalDistance 	2388.7201586067
scalar LocScenario.node[30].veinsmobility 	totalCO2Emission 	392.52016775528
scalar LocScenario.node[35].appl 	generatedWSMs 	0
scalar LocScenario.node[35].appl 	receivedWSMs 	0
scalar LocScenario.node[35].appl 	generatedBSMs 	2040
scalar LocScenario.node[35].appl 	receivedBSMs 	9556
scalar LocScenario.node[35].appl 	generatedWSAs 	0
scalar LocScenario.node[35].appl 	receivedWSAs 	0
scalar LocScenario.node[35].appl 	rmseSUMGPS 	767428.80746614
scalar LocScenario.node[35].appl 	rmseSUMCP 	1059033.3423785
scalar LocScenario.node[35].appl 	delaySum 	1.0721342573509
scalar LocScenario.node[35].nic.phy80211p 	busyTime 	0.0048716862745095
scalar LocScenario.node[35].nic.mac1609_4 	ReceivedUnicastPackets 	0
scalar LocScenario.node[35].nic.mac1609_4 	ReceivedBroadcasts 	9556
scalar LocScenario.node[35].nic.mac1609_4 	SentPackets 	2040
scalar LocScenario.node[35].nic.mac1609_4 	SNIRLostPackets 	0
scalar LocScenario.node[35].nic.mac1609_4 	RXTXLostPackets 	0
scalar LocScenario.node[35].nic.mac1609_4 	TotalLostPackets 	0
scalar LocScenario.node[35].nic.mac1609_4 	DroppedPacketsInMac 	0
scalar LocScenario.node[35].nic.mac1609_4 	TooLittleTime 	0
scalar LocScenario.node[35].nic.mac1609_4 	TimesIntoBackoff 	2040
scalar LocScenario.node[35].nic.mac1609_4 	SlotsBackoff 	3075
scalar LocScenario.node[35].nic.mac1609_4 	NumInternalContention 	0
scalar LocScenario.node[35].nic.mac1609_4 	totalBusyTime 	1.208024
scalar LocScenario.node[35].veinsmobility 	startTime 	255.1
scalar LocScenario.node[35].veinsmobility 	totalTime 	203.9
scalar LocScenario.node[35].veinsmobility 	stopTime 	459.1
scalar LocScenario.node[35].veinsmobility 	minSpeed 	10.450021163572
scalar LocScenario.node[35].veinsmobility 	maxSpeed 	10.499986267358
scalar LocScenario.node[35].veinsmobility 	totalDistance 	2138.7655924487
scalar LocScenario.node[35].veinsmobility 	totalCO2Emission 	351.95635888836
scalar LocScenario.node[32].appl 	generatedWSMs 	0
scalar LocScenario.node[32].appl 	receivedWSMs 	0
scalar LocScenario.node[32].appl 	generatedBSMs 	2281
scalar LocScenario.node[32].appl 	receivedBSMs 	9864
scalar LocScenario.node[32].appl 	generatedWSAs 	0
scalar LocScenario.node[32].appl 	receivedWSAs 	0
scalar LocScenario.node[32].appl 	rmseSUMGPS 	644860.43112194
scalar LocScenario.node[32].appl 	rmseSUMCP 	932361.64435131
scalar LocScenario.node[32].appl 	delaySum 	1.1245829857075
scalar LocScenario.node[32].nic.phy80211p 	busyTime 	0.0045762735642262
scalar LocScenario.node[32].nic.mac1609_4 	ReceivedUnicastPackets 	0
scalar LocScenario.node[32].nic.mac1609_4 	ReceivedBroadcasts 	9864
scalar LocScenario.node[32].nic.mac1609_4 	SentPackets 	2281
scalar LocScenario.node[32].nic.mac1609_4 	SNIRLostPackets 	173
scalar LocScenario.node[32].nic.mac1609_4 	RXTXLostPackets 	0
scalar LocScenario.node[32].nic.mac1609_4 	TotalLostPackets 	173
scalar LocScenario.node[32].nic.mac1609_4 	DroppedPacketsInMac 	0
scalar LocScenario.node[32].nic.mac1609_4 	TooLittleTime 	0
scalar LocScenario.node[32].nic.mac1609_4 	TimesIntoBackoff 	2281
scalar LocScenario.node[32].nic.mac1609_4 	SlotsBackoff 	3420
scalar LocScenario.node[32].nic.mac1609_4 	NumInternalContention 	0
scalar LocScenario.node[32].nic.mac1609_4 	totalBusyTime 	1.275865
scalar LocScenario.node[32].veinsmobility 	startTime 	240.1
scalar LocScenario.node[32].veinsmobility 	totalTime 	228
scalar LocScenario.node[32].veinsmobility 	stopTime 	468.2
scalar LocScenario.node[32].veinsmobility 	minSpeed 	10.450025838462
scalar LocScenario.node[32].veinsmobility 	maxSpeed 	10.499998136424
scalar LocScenario.node[32].veinsmobility 	totalDistance 	2394.7906259762
scalar LocScenario.node[32].veinsmobility 	totalCO2Emission 	393.30644046418
scalar LocScenario.node[37].appl 	generatedWSMs 	0
scalar LocScenario.node[37].appl 	receivedWSMs 	0
scalar LocScenario.node[37].appl 	generatedBSMs 	2040
scalar LocScenario.node[37].appl 	receivedBSMs 	9556
scalar LocScenario.node[37].appl 	generatedWSAs 	0
scalar LocScenario.node[37].appl 	receivedWSAs 	0
scalar LocScenario.node[37].appl 	rmseSUMGPS 	772168.95330276
scalar LocScenario.node[37].appl 	rmseSUMCP 	1041038.7849634
scalar LocScenario.node[37].appl 	delaySum 	1.0686865713179
scalar LocScenario.node[37].nic.phy80211p 	busyTime 	0.0048716862745095
scalar LocScenario.node[37].nic.mac1609_4 	ReceivedUnicastPackets 	0
scalar LocScenario.node[37].nic.mac1609_4 	ReceivedBroadcasts 	9556
scalar LocScenario.node[37].nic.mac1609_4 	SentPackets 	2040
scalar LocScenario.node[37].nic.mac1609_4 	SNIRLostPackets 	0
scalar LocScenario.node[37].nic.mac1609_4 	RXTXLostPackets 	0
scalar LocScenario.node[37].nic.mac1609_4 	TotalLostPackets 	0
scalar LocScenario.node[37].nic.mac1609_4 	DroppedPacketsInMac 	0
scalar LocScenario.node[37].nic.mac1609_4 	TooLittleTime 	0
scalar LocScenario.node[37].nic.mac1609_4 	TimesIntoBackoff 	2040
scalar LocScenario.node[37].nic.mac1609_4 	SlotsBackoff 	3041
scalar LocScenario.node[37].nic.mac1609_4 	NumInternalContention 	0
scalar LocScenario.node[37].nic.mac1609_4 	totalBusyTime 	1.208024
scalar LocScenario.node[37].veinsmobility 	startTime 	270.1
scalar LocScenario.node[37].veinsmobility 	totalTime 	203.9
scalar LocScenario.node[37].veinsmobility 	stopTime 	474.1
scalar LocScenario.node[37].veinsmobility 	minSpeed 	10.450038407242
scalar LocScenario.node[37].veinsmobility 	maxSpeed 	10.499992471491
scalar LocScenario.node[37].veinsmobility 	totalDistance 	2133.832670297
scalar LocScenario.node[37].veinsmobility 	totalCO2Emission 	352.36519957017
scalar LocScenario.node[34].appl 	generatedWSMs 	0
scalar LocScenario.node[34].appl 	receivedWSMs 	0
scalar LocScenario.node[34].appl 	generatedBSMs 	2281
scalar LocScenario.node[34].appl 	receivedBSMs 	10040
scalar LocScenario.node[34].appl 	generatedWSAs 	0
scalar LocScenario.node[34].appl 	receivedWSAs 	0
scalar LocScenario.node[34].appl 	rmseSUMGPS 	444335.53754729
scalar LocScenario.node[34].appl 	rmseSUMCP 	483180.477239
scalar LocScenario.node[34].appl 	delaySum 	1.1555863352602
scalar LocScenario.node[34].nic.phy80211p 	busyTime 	0.0045776413853573
scalar LocScenario.node[34].nic.mac1609_4 	ReceivedUnicastPackets 	0
scalar LocScenario.node[34].nic.mac1609_4 	ReceivedBroadcasts 	10040
scalar LocScenario.node[34].nic.mac1609_4 	SentPackets 	2281
scalar LocScenario.node[34].nic.mac1609_4 	SNIRLostPackets 	0
scalar LocScenario.node[34].nic.mac1609_4 	RXTXLostPackets 	0
scalar LocScenario.node[34].nic.mac1609_4 	TotalLostPackets 	0
scalar LocScenario.node[34].nic.mac1609_4 	DroppedPacketsInMac 	0
scalar LocScenario.node[34].nic.mac1609_4 	TooLittleTime 	0
scalar LocScenario.node[34].nic.mac1609_4 	TimesIntoBackoff 	2281
scalar LocScenario.node[34].nic.mac1609_4 	SlotsBackoff 	3477
scalar LocScenario.node[34].nic.mac1609_4 	NumInternalContention 	0
scalar LocScenario.node[34].nic.mac1609_4 	totalBusyTime 	1.283665
scalar LocScenario.node[34].veinsmobility 	startTime 	255.1
scalar LocScenario.node[34].veinsmobility 	totalTime 	228
scalar LocScenario.node[34].veinsmobility 	stopTime 	483.2
scalar LocScenario.node[34].veinsmobility 	minSpeed 	10.450014281017
scalar LocScenario.node[34].veinsmobility 	maxSpeed 	10.499945980788
scalar LocScenario.node[34].veinsmobility 	totalDistance 	2392.2653503223
scalar LocScenario.node[34].veinsmobility 	totalCO2Emission 	393.20718839102
scalar LocScenario.node[39].appl 	generatedWSMs 	0
scalar LocScenario.node[39].appl 	receivedWSMs 	0
scalar LocScenario.node[39].appl 	generatedBSMs 	2040
scalar LocScenario.node[39].appl 	receivedBSMs 	9558
scalar LocScenario.node[39].appl 	generatedWSAs 	0
scalar LocScenario.node[39].appl 	receivedWSAs 	0
scalar LocScenario.node[39].appl 	rmseSUMGPS 	910313.96787377
scalar LocScenario.node[39].appl 	rmseSUMCP 	1088245.5299047
scalar LocScenario.node[39].appl 	delaySum 	1.077702677147
scalar LocScenario.node[39].nic.phy80211p 	busyTime 	0.0048727058823527
scalar LocScenario.node[39].nic.mac1609_4 	ReceivedUnicastPackets 	0
scalar LocScenario.node[39].nic.mac1609_4 	ReceivedBroadcasts 	9558
scalar LocScenario.node[39].nic.mac1609_4 	SentPackets 	2040
scalar LocScenario.node[39].nic.mac1609_4 	SNIRLostPackets 	0
scalar LocScenario.node[39].nic.mac1609_4 	RXTXLostPackets 	0
scalar LocScenario.node[39].nic.mac1609_4 	TotalLostPackets 	0
scalar LocScenario.node[39].nic.mac1609_4 	DroppedPacketsInMac 	0
scalar LocScenario.node[39].nic.mac1609_4 	TooLittleTime 	0
scalar LocScenario.node[39].nic.mac1609_4 	TimesIntoBackoff 	2040
scalar LocScenario.node[39].nic.mac1609_4 	SlotsBackoff 	3094
scalar LocScenario.node[39].nic.mac1609_4 	NumInternalContention 	0
scalar LocScenario.node[39].nic.mac1609_4 	totalBusyTime 	1.208232
scalar LocScenario.node[39].veinsmobility 	startTime 	285.1
scalar LocScenario.node[39].veinsmobility 	totalTime 	203.9
scalar LocScenario.node[39].veinsmobility 	stopTime 	489.1
scalar LocScenario.node[39].veinsmobility 	minSpeed 	10.450018389814
scalar LocScenario.node[39].veinsmobility 	maxSpeed 	10.499974314193
scalar LocScenario.node[39].veinsmobility 	totalDistance 	2138.7671122896
scalar LocScenario.node[39].veinsmobility 	totalCO2Emission 	352.04173397879
scalar LocScenario.node[36].appl 	generatedWSMs 	0
scalar LocScenario.node[36].appl 	receivedWSMs 	0
scalar LocScenario.node[36].appl 	generatedBSMs 	2281
scalar LocScenario.node[36].appl 	receivedBSMs 	9854
scalar LocScenario.node[36].appl 	generatedWSAs 	0
scalar LocScenario.node[36].appl 	receivedWSAs 	0
scalar LocScenario.node[36].appl 	rmseSUMGPS 	21573.572666883
scalar LocScenario.node[36].appl 	rmseSUMCP 	497939.78636171
scalar LocScenario.node[36].appl 	delaySum 	1.1244307272598
scalar LocScenario.node[36].nic.phy80211p 	busyTime 	0.0045771854449802
scalar LocScenario.node[36].nic.mac1609_4 	ReceivedUnicastPackets 	0
scalar LocScenario.node[36].nic.mac1609_4 	ReceivedBroadcasts 	9854
scalar LocScenario.node[36].nic.mac1609_4 	SentPackets 	2281
scalar LocScenario.node[36].nic.mac1609_4 	SNIRLostPackets 	185
scalar LocScenario.node[36].nic.mac1609_4 	RXTXLostPackets 	0
scalar LocScenario.node[36].nic.mac1609_4 	TotalLostPackets 	185
scalar LocScenario.node[36].nic.mac1609_4 	DroppedPacketsInMac 	0
scalar LocScenario.node[36].nic.mac1609_4 	TooLittleTime 	0
scalar LocScenario.node[36].nic.mac1609_4 	TimesIntoBackoff 	2281
scalar LocScenario.node[36].nic.mac1609_4 	SlotsBackoff 	3368
scalar LocScenario.node[36].nic.mac1609_4 	NumInternalContention 	0
scalar LocScenario.node[36].nic.mac1609_4 	totalBusyTime 	1.275553
scalar LocScenario.node[36].veinsmobility 	startTime 	270.1
scalar LocScenario.node[36].veinsmobility 	totalTime 	228
scalar LocScenario.node[36].veinsmobility 	stopTime 	498.2
scalar LocScenario.node[36].veinsmobility 	minSpeed 	10.450005437294
scalar LocScenario.node[36].veinsmobility 	maxSpeed 	10.499985938228
scalar LocScenario.node[36].veinsmobility 	totalDistance 	2394.7757653655
scalar LocScenario.node[36].veinsmobility 	totalCO2Emission 	393.65304576015
scalar LocScenario.node[41].appl 	generatedWSMs 	0
scalar LocScenario.node[41].appl 	receivedWSMs 	0
scalar LocScenario.node[41].appl 	generatedBSMs 	2040
scalar LocScenario.node[41].appl 	receivedBSMs 	9558
scalar LocScenario.node[41].appl 	generatedWSAs 	0
scalar LocScenario.node[41].appl 	receivedWSAs 	0
scalar LocScenario.node[41].appl 	rmseSUMGPS 	1054925.1193439
scalar LocScenario.node[41].appl 	rmseSUMCP 	1148429.1791328
scalar LocScenario.node[41].appl 	delaySum 	1.0698741586543
scalar LocScenario.node[41].nic.phy80211p 	busyTime 	0.0048727058823527
scalar LocScenario.node[41].nic.mac1609_4 	ReceivedUnicastPackets 	0
scalar LocScenario.node[41].nic.mac1609_4 	ReceivedBroadcasts 	9558
scalar LocScenario.node[41].nic.mac1609_4 	SentPackets 	2040
scalar LocScenario.node[41].nic.mac1609_4 	SNIRLostPackets 	0
scalar LocScenario.node[41].nic.mac1609_4 	RXTXLostPackets 	0
scalar LocScenario.node[41].nic.mac1609_4 	TotalLostPackets 	0
scalar LocScenario.node[41].nic.mac1609_4 	DroppedPacketsInMac 	0
scalar LocScenario.node[41].nic.mac1609_4 	TooLittleTime 	0
scalar LocScenario.node[41].nic.mac1609_4 	TimesIntoBackoff 	2040
scalar LocScenario.node[41].nic.mac1609_4 	SlotsBackoff 	3146
scalar LocScenario.node[41].nic.mac1609_4 	NumInternalContention 	0
scalar LocScenario.node[41].nic.mac1609_4 	totalBusyTime 	1.208232
scalar LocScenario.node[41].veinsmobility 	startTime 	300.1
scalar LocScenario.node[41].veinsmobility 	totalTime 	203.9
scalar LocScenario.node[41].veinsmobility 	stopTime 	504.1
scalar LocScenario.node[41].veinsmobility 	minSpeed 	10.450059657742
scalar LocScenario.node[41].veinsmobility 	maxSpeed 	10.499926316214
scalar LocScenario.node[41].veinsmobility 	totalDistance 	2138.6573043552
scalar LocScenario.node[41].veinsmobility 	totalCO2Emission 	352.27893528088
scalar LocScenario.node[38].appl 	generatedWSMs 	0
scalar LocScenario.node[38].appl 	receivedWSMs 	0
scalar LocScenario.node[38].appl 	generatedBSMs 	2281
scalar LocScenario.node[38].appl 	receivedBSMs 	10016
scalar LocScenario.node[38].appl 	generatedWSAs 	0
scalar LocScenario.node[38].appl 	receivedWSAs 	0
scalar LocScenario.node[38].appl 	rmseSUMGPS 	858639.86285323
scalar LocScenario.node[38].appl 	rmseSUMCP 	495841.90873675
scalar LocScenario.node[38].appl 	delaySum 	-1.0503586551221
scalar LocScenario.node[38].nic.phy80211p 	busyTime 	0.0045776413853573
scalar LocScenario.node[38].nic.mac1609_4 	ReceivedUnicastPackets 	0
scalar LocScenario.node[38].nic.mac1609_4 	ReceivedBroadcasts 	10016
scalar LocScenario.node[38].nic.mac1609_4 	SentPackets 	2281
scalar LocScenario.node[38].nic.mac1609_4 	SNIRLostPackets 	24
scalar LocScenario.node[38].nic.mac1609_4 	RXTXLostPackets 	0
scalar LocScenario.node[38].nic.mac1609_4 	TotalLostPackets 	24
scalar LocScenario.node[38].nic.mac1609_4 	DroppedPacketsInMac 	0
scalar LocScenario.node[38].nic.mac1609_4 	TooLittleTime 	0
scalar LocScenario.node[38].nic.mac1609_4 	TimesIntoBackoff 	2281
scalar LocScenario.node[38].nic.mac1609_4 	SlotsBackoff 	3402
scalar LocScenario.node[38].nic.mac1609_4 	NumInternalContention 	0
scalar LocScenario.node[38].nic.mac1609_4 	totalBusyTime 	1.283665
scalar LocScenario.node[38].veinsmobility 	startTime 	285.1
scalar LocScenario.node[38].veinsmobility 	totalTime 	228
scalar LocScenario.node[38].veinsmobility 	stopTime 	513.2
scalar LocScenario.node[38].veinsmobility 	minSpeed 	10.450015101139
scalar LocScenario.node[38].veinsmobility 	maxSpeed 	10.499995163875
scalar LocScenario.node[38].veinsmobility 	totalDistance 	2388.6211220495
scalar LocScenario.node[38].veinsmobility 	totalCO2Emission 	393.25713700287
scalar LocScenario.node[43].appl 	generatedWSMs 	0
scalar LocScenario.node[43].appl 	receivedWSMs 	0
scalar LocScenario.node[43].appl 	generatedBSMs 	2040
scalar LocScenario.node[43].appl 	receivedBSMs 	9554
scalar LocScenario.node[43].appl 	generatedWSAs 	0
scalar LocScenario.node[43].appl 	receivedWSAs 	0
scalar LocScenario.node[43].appl 	rmseSUMGPS 	321560.48620248
scalar LocScenario.node[43].appl 	rmseSUMCP 	1153899.4284672
scalar LocScenario.node[43].appl 	delaySum 	1.0748669008374
scalar LocScenario.node[43].nic.phy80211p 	busyTime 	0.0048706666666664
scalar LocScenario.node[43].nic.mac1609_4 	ReceivedUnicastPackets 	0
scalar LocScenario.node[43].nic.mac1609_4 	ReceivedBroadcasts 	9554
scalar LocScenario.node[43].nic.mac1609_4 	SentPackets 	2040
scalar LocScenario.node[43].nic.mac1609_4 	SNIRLostPackets 	0
scalar LocScenario.node[43].nic.mac1609_4 	RXTXLostPackets 	0
scalar LocScenario.node[43].nic.mac1609_4 	TotalLostPackets 	0
scalar LocScenario.node[43].nic.mac1609_4 	DroppedPacketsInMac 	0
scalar LocScenario.node[43].nic.mac1609_4 	TooLittleTime 	0
scalar LocScenario.node[43].nic.mac1609_4 	TimesIntoBackoff 	2040
scalar LocScenario.node[43].nic.mac1609_4 	SlotsBackoff 	3049
scalar LocScenario.node[43].nic.mac1609_4 	NumInternalContention 	0
scalar LocScenario.node[43].nic.mac1609_4 	totalBusyTime 	1.207816
scalar LocScenario.node[43].veinsmobility 	startTime 	315.1
scalar LocScenario.node[43].veinsmobility 	totalTime 	203.9
scalar LocScenario.node[43].veinsmobility 	stopTime 	519.1
scalar LocScenario.node[43].veinsmobility 	minSpeed 	10.45001937882
scalar LocScenario.node[43].veinsmobility 	maxSpeed 	10.49998440136
scalar LocScenario.node[43].veinsmobility 	totalDistance 	2133.8985264462
scalar LocScenario.node[43].veinsmobility 	totalCO2Emission 	351.80359119909
scalar LocScenario.node[40].appl 	generatedWSMs 	0
scalar LocScenario.node[40].appl 	receivedWSMs 	0
scalar LocScenario.node[40].appl 	generatedBSMs 	2281
scalar LocScenario.node[40].appl 	receivedBSMs 	10040
scalar LocScenario.node[40].appl 	generatedWSAs 	0
scalar LocScenario.node[40].appl 	receivedWSAs 	0
scalar LocScenario.node[40].appl 	rmseSUMGPS 	1014589.0269501
scalar LocScenario.node[40].appl 	rmseSUMCP 	448158.19158061
scalar LocScenario.node[40].appl 	delaySum 	1.1250039512678
scalar LocScenario.node[40].nic.phy80211p 	busyTime 	0.0045776413853573
scalar LocScenario.node[40].nic.mac1609_4 	ReceivedUnicastPackets 	0
scalar LocScenario.node[40].nic.mac1609_4 	ReceivedBroadcasts 	10040
scalar LocScenario.node[40].nic.mac1609_4 	SentPackets 	2281
scalar LocScenario.node[40].nic.mac1609_4 	SNIRLostPackets 	0
scalar LocScenario.node[40].nic.mac1609_4 	RXTXLostPackets 	0
scalar LocScenario.node[40].nic.mac1609_4 	TotalLostPackets 	0
scalar LocScenario.node[40].nic.mac1609_4 	DroppedPacketsInMac 	0
scalar LocScenario.node[40].nic.mac1609_4 	TooLittleTime 	0
scalar LocScenario.node[40].nic.mac1609_4 	TimesIntoBackoff 	2281
scalar LocScenario.node[40].nic.mac1609_4 	SlotsBackoff 	3483
[...]
scalar LocScenario.node[591].veinsmobility 	totalTime 	203.9
scalar LocScenario.node[591].veinsmobility 	stopTime 	4629.1
scalar LocScenario.node[591].veinsmobility 	minSpeed 	10.450001987047
scalar LocScenario.node[591].veinsmobility 	maxSpeed 	10.499966227484
scalar LocScenario.node[591].veinsmobility 	totalDistance 	2138.7997313922
scalar LocScenario.node[591].veinsmobility 	totalCO2Emission 	351.87142582436
scalar LocScenario.node[588].appl 	generatedWSMs 	0
scalar LocScenario.node[588].appl 	receivedWSMs 	0
scalar LocScenario.node[588].appl 	generatedBSMs 	2281
scalar LocScenario.node[588].appl 	receivedBSMs 	8301
scalar LocScenario.node[588].appl 	generatedWSAs 	0
scalar LocScenario.node[588].appl 	receivedWSAs 	0
scalar LocScenario.node[588].appl 	rmseSUMGPS 	71611.140258299
scalar LocScenario.node[588].appl 	rmseSUMCP 	1397636.6793044
scalar LocScenario.node[588].appl 	delaySum 	11.944266337695
scalar LocScenario.node[588].nic.phy80211p 	busyTime 	0.0037847610697061
scalar LocScenario.node[588].nic.mac1609_4 	ReceivedUnicastPackets 	0
scalar LocScenario.node[588].nic.mac1609_4 	ReceivedBroadcasts 	8301
scalar LocScenario.node[588].nic.mac1609_4 	SentPackets 	2281
scalar LocScenario.node[588].nic.mac1609_4 	SNIRLostPackets 	0
scalar LocScenario.node[588].nic.mac1609_4 	RXTXLostPackets 	0
scalar LocScenario.node[588].nic.mac1609_4 	TotalLostPackets 	0
scalar LocScenario.node[588].nic.mac1609_4 	DroppedPacketsInMac 	0
scalar LocScenario.node[588].nic.mac1609_4 	TooLittleTime 	0
scalar LocScenario.node[588].nic.mac1609_4 	TimesIntoBackoff 	2281
scalar LocScenario.node[588].nic.mac1609_4 	SlotsBackoff 	3528
scalar LocScenario.node[588].nic.mac1609_4 	NumInternalContention 	0
scalar LocScenario.node[588].nic.mac1609_4 	totalBusyTime 	1.102809
scalar LocScenario.node[588].veinsmobility 	startTime 	4410.1
scalar LocScenario.node[588].veinsmobility 	totalTime 	228
scalar LocScenario.node[588].veinsmobility 	stopTime 	4638.2
scalar LocScenario.node[588].veinsmobility 	minSpeed 	10.450008943968
scalar LocScenario.node[588].veinsmobility 	maxSpeed 	10.499978955858
scalar LocScenario.node[588].veinsmobility 	totalDistance 	2392.4335390701
scalar LocScenario.node[588].veinsmobility 	totalCO2Emission 	393.22976259392
scalar LocScenario.node[593].appl 	generatedWSMs 	0
scalar LocScenario.node[593].appl 	receivedWSMs 	0
scalar LocScenario.node[593].appl 	generatedBSMs 	2040
scalar LocScenario.node[593].appl 	receivedBSMs 	7384
scalar LocScenario.node[593].appl 	generatedWSAs 	0
scalar LocScenario.node[593].appl 	receivedWSAs 	0
scalar LocScenario.node[593].appl 	rmseSUMGPS 	322799.44398803
scalar LocScenario.node[593].appl 	rmseSUMCP 	321092.14745673
scalar LocScenario.node[593].appl 	delaySum 	9.5533780872438
scalar LocScenario.node[593].nic.phy80211p 	busyTime 	0.0038321960784312
scalar LocScenario.node[593].nic.mac1609_4 	ReceivedUnicastPackets 	0
scalar LocScenario.node[593].nic.mac1609_4 	ReceivedBroadcasts 	7384
scalar LocScenario.node[593].nic.mac1609_4 	SentPackets 	2040
scalar LocScenario.node[593].nic.mac1609_4 	SNIRLostPackets 	133
scalar LocScenario.node[593].nic.mac1609_4 	RXTXLostPackets 	0
scalar LocScenario.node[593].nic.mac1609_4 	TotalLostPackets 	133
scalar LocScenario.node[593].nic.mac1609_4 	DroppedPacketsInMac 	0
scalar LocScenario.node[593].nic.mac1609_4 	TooLittleTime 	0
scalar LocScenario.node[593].nic.mac1609_4 	TimesIntoBackoff 	2040
scalar LocScenario.node[593].nic.mac1609_4 	SlotsBackoff 	3033
scalar LocScenario.node[593].nic.mac1609_4 	NumInternalContention 	0
scalar LocScenario.node[593].nic.mac1609_4 	totalBusyTime 	0.98848
scalar LocScenario.node[593].veinsmobility 	startTime 	4440.1
scalar LocScenario.node[593].veinsmobility 	totalTime 	203.9
scalar LocScenario.node[593].veinsmobility 	stopTime 	4644.1
scalar LocScenario.node[593].veinsmobility 	minSpeed 	10.450018572167
scalar LocScenario.node[593].veinsmobility 	maxSpeed 	10.499956418539
scalar LocScenario.node[593].veinsmobility 	totalDistance 	2133.8919884973
scalar LocScenario.node[593].veinsmobility 	totalCO2Emission 	351.99262283249
scalar LocScenario.node[590].appl 	generatedWSMs 	0
scalar LocScenario.node[590].appl 	receivedWSMs 	0
scalar LocScenario.node[590].appl 	generatedBSMs 	2281
scalar LocScenario.node[590].appl 	receivedBSMs 	8077
scalar LocScenario.node[590].appl 	generatedWSAs 	0
scalar LocScenario.node[590].appl 	receivedWSAs 	0
scalar LocScenario.node[590].appl 	rmseSUMGPS 	54478.577802039
scalar LocScenario.node[590].appl 	rmseSUMCP 	1487094.882048
scalar LocScenario.node[590].appl 	delaySum 	9.3830419185051
scalar LocScenario.node[590].nic.phy80211p 	busyTime 	0.0036826304252519
scalar LocScenario.node[590].nic.mac1609_4 	ReceivedUnicastPackets 	0
scalar LocScenario.node[590].nic.mac1609_4 	ReceivedBroadcasts 	8077
scalar LocScenario.node[590].nic.mac1609_4 	SentPackets 	2281
scalar LocScenario.node[590].nic.mac1609_4 	SNIRLostPackets 	0
scalar LocScenario.node[590].nic.mac1609_4 	RXTXLostPackets 	0
scalar LocScenario.node[590].nic.mac1609_4 	TotalLostPackets 	0
scalar LocScenario.node[590].nic.mac1609_4 	DroppedPacketsInMac 	0
scalar LocScenario.node[590].nic.mac1609_4 	TooLittleTime 	0
scalar LocScenario.node[590].nic.mac1609_4 	TimesIntoBackoff 	2281
scalar LocScenario.node[590].nic.mac1609_4 	SlotsBackoff 	3353
scalar LocScenario.node[590].nic.mac1609_4 	NumInternalContention 	0
scalar LocScenario.node[590].nic.mac1609_4 	totalBusyTime 	1.079513
scalar LocScenario.node[590].veinsmobility 	startTime 	4425.1
scalar LocScenario.node[590].veinsmobility 	totalTime 	228
scalar LocScenario.node[590].veinsmobility 	stopTime 	4653.2
scalar LocScenario.node[590].veinsmobility 	minSpeed 	10.450009378011
scalar LocScenario.node[590].veinsmobility 	maxSpeed 	10.499933366978
scalar LocScenario.node[590].veinsmobility 	totalDistance 	2392.3322807117
scalar LocScenario.node[590].veinsmobility 	totalCO2Emission 	393.40845224345
scalar LocScenario.node[595].appl 	generatedWSMs 	0
scalar LocScenario.node[595].appl 	receivedWSMs 	0
scalar LocScenario.node[595].appl 	generatedBSMs 	2040
scalar LocScenario.node[595].appl 	receivedBSMs 	7164
scalar LocScenario.node[595].appl 	generatedWSAs 	0
scalar LocScenario.node[595].appl 	receivedWSAs 	0
scalar LocScenario.node[595].appl 	rmseSUMGPS 	654671.24416728
scalar LocScenario.node[595].appl 	rmseSUMCP 	1186365.2026914
scalar LocScenario.node[595].appl 	delaySum 	20.759836915863
scalar LocScenario.node[595].nic.phy80211p 	busyTime 	0.0037205490196077
scalar LocScenario.node[595].nic.mac1609_4 	ReceivedUnicastPackets 	0
scalar LocScenario.node[595].nic.mac1609_4 	ReceivedBroadcasts 	7164
scalar LocScenario.node[595].nic.mac1609_4 	SentPackets 	2040
scalar LocScenario.node[595].nic.mac1609_4 	SNIRLostPackets 	134
scalar LocScenario.node[595].nic.mac1609_4 	RXTXLostPackets 	0
scalar LocScenario.node[595].nic.mac1609_4 	TotalLostPackets 	134
scalar LocScenario.node[595].nic.mac1609_4 	DroppedPacketsInMac 	0
scalar LocScenario.node[595].nic.mac1609_4 	TooLittleTime 	0
scalar LocScenario.node[595].nic.mac1609_4 	TimesIntoBackoff 	2040
scalar LocScenario.node[595].nic.mac1609_4 	SlotsBackoff 	3097
scalar LocScenario.node[595].nic.mac1609_4 	NumInternalContention 	0
scalar LocScenario.node[595].nic.mac1609_4 	totalBusyTime 	0.965704
scalar LocScenario.node[595].veinsmobility 	startTime 	4455.1
scalar LocScenario.node[595].veinsmobility 	totalTime 	203.9
scalar LocScenario.node[595].veinsmobility 	stopTime 	4659.1
scalar LocScenario.node[595].veinsmobility 	minSpeed 	10.450011237536
scalar LocScenario.node[595].veinsmobility 	maxSpeed 	10.499966649758
scalar LocScenario.node[595].veinsmobility 	totalDistance 	2138.7487760466
scalar LocScenario.node[595].veinsmobility 	totalCO2Emission 	351.97574991694
scalar LocScenario.node[592].appl 	generatedWSMs 	0
scalar LocScenario.node[592].appl 	receivedWSMs 	0
scalar LocScenario.node[592].appl 	generatedBSMs 	2281
scalar LocScenario.node[592].appl 	receivedBSMs 	3895
scalar LocScenario.node[592].appl 	generatedWSAs 	0
scalar LocScenario.node[592].appl 	receivedWSAs 	0
scalar LocScenario.node[592].appl 	rmseSUMGPS 	55094.078160211
scalar LocScenario.node[592].appl 	rmseSUMCP 	934919.13619049
scalar LocScenario.node[592].appl 	delaySum 	1.5059503170169
scalar LocScenario.node[592].nic.phy80211p 	busyTime 	0.0035823235423058
scalar LocScenario.node[592].nic.mac1609_4 	ReceivedUnicastPackets 	0
scalar LocScenario.node[592].nic.mac1609_4 	ReceivedBroadcasts 	3895
scalar LocScenario.node[592].nic.mac1609_4 	SentPackets 	2281
scalar LocScenario.node[592].nic.mac1609_4 	SNIRLostPackets 	3962
scalar LocScenario.node[592].nic.mac1609_4 	RXTXLostPackets 	0
scalar LocScenario.node[592].nic.mac1609_4 	TotalLostPackets 	3962
scalar LocScenario.node[592].nic.mac1609_4 	DroppedPacketsInMac 	0
scalar LocScenario.node[592].nic.mac1609_4 	TooLittleTime 	0
scalar LocScenario.node[592].nic.mac1609_4 	TimesIntoBackoff 	2281
scalar LocScenario.node[592].nic.mac1609_4 	SlotsBackoff 	3403
scalar LocScenario.node[592].nic.mac1609_4 	NumInternalContention 	0
scalar LocScenario.node[592].nic.mac1609_4 	totalBusyTime 	0.850609
scalar LocScenario.node[592].veinsmobility 	startTime 	4440.1
scalar LocScenario.node[592].veinsmobility 	totalTime 	228
scalar LocScenario.node[592].veinsmobility 	stopTime 	4668.2
scalar LocScenario.node[592].veinsmobility 	minSpeed 	10.450008079095
scalar LocScenario.node[592].veinsmobility 	maxSpeed 	10.499959633348
scalar LocScenario.node[592].veinsmobility 	totalDistance 	2392.3033861029
scalar LocScenario.node[592].veinsmobility 	totalCO2Emission 	393.07763380923
scalar LocScenario.node[597].appl 	generatedWSMs 	0
scalar LocScenario.node[597].appl 	receivedWSMs 	0
scalar LocScenario.node[597].appl 	generatedBSMs 	2040
scalar LocScenario.node[597].appl 	receivedBSMs 	6941
scalar LocScenario.node[597].appl 	generatedWSAs 	0
scalar LocScenario.node[597].appl 	receivedWSAs 	0
scalar LocScenario.node[597].appl 	rmseSUMGPS 	710605.8424323
scalar LocScenario.node[597].appl 	rmseSUMCP 	1258746.0516765
scalar LocScenario.node[597].appl 	delaySum 	6.111977811523
scalar LocScenario.node[597].nic.phy80211p 	busyTime 	0.0036068627450979
scalar LocScenario.node[597].nic.mac1609_4 	ReceivedUnicastPackets 	0
scalar LocScenario.node[597].nic.mac1609_4 	ReceivedBroadcasts 	6941
scalar LocScenario.node[597].nic.mac1609_4 	SentPackets 	2040
scalar LocScenario.node[597].nic.mac1609_4 	SNIRLostPackets 	134
scalar LocScenario.node[597].nic.mac1609_4 	RXTXLostPackets 	0
scalar LocScenario.node[597].nic.mac1609_4 	TotalLostPackets 	134
scalar LocScenario.node[597].nic.mac1609_4 	DroppedPacketsInMac 	0
scalar LocScenario.node[597].nic.mac1609_4 	TooLittleTime 	0
scalar LocScenario.node[597].nic.mac1609_4 	TimesIntoBackoff 	2040
scalar LocScenario.node[597].nic.mac1609_4 	SlotsBackoff 	3034
scalar LocScenario.node[597].nic.mac1609_4 	NumInternalContention 	0
scalar LocScenario.node[597].nic.mac1609_4 	totalBusyTime 	0.942512
scalar LocScenario.node[597].veinsmobility 	startTime 	4470.1
scalar LocScenario.node[597].veinsmobility 	totalTime 	203.9
scalar LocScenario.node[597].veinsmobility 	stopTime 	4674.1
scalar LocScenario.node[597].veinsmobility 	minSpeed 	10.45002462893
scalar LocScenario.node[597].veinsmobility 	maxSpeed 	10.499998844031
scalar LocScenario.node[597].veinsmobility 	totalDistance 	2133.9027984695
scalar LocScenario.node[597].veinsmobility 	totalCO2Emission 	351.52565475573
scalar LocScenario.node[594].appl 	generatedWSMs 	0
scalar LocScenario.node[594].appl 	receivedWSMs 	0
scalar LocScenario.node[594].appl 	generatedBSMs 	2281
scalar LocScenario.node[594].appl 	receivedBSMs 	7634
scalar LocScenario.node[594].appl 	generatedWSAs 	0
scalar LocScenario.node[594].appl 	receivedWSAs 	0
scalar LocScenario.node[594].appl 	rmseSUMGPS 	114540.47000292
scalar LocScenario.node[594].appl 	rmseSUMCP 	1613858.5846578
scalar LocScenario.node[594].appl 	delaySum 	7.5234308428066
scalar LocScenario.node[594].nic.phy80211p 	busyTime 	0.0034806488382287
scalar LocScenario.node[594].nic.mac1609_4 	ReceivedUnicastPackets 	0
scalar LocScenario.node[594].nic.mac1609_4 	ReceivedBroadcasts 	7634
scalar LocScenario.node[594].nic.mac1609_4 	SentPackets 	2281
scalar LocScenario.node[594].nic.mac1609_4 	SNIRLostPackets 	0
scalar LocScenario.node[594].nic.mac1609_4 	RXTXLostPackets 	0
scalar LocScenario.node[594].nic.mac1609_4 	TotalLostPackets 	0
scalar LocScenario.node[594].nic.mac1609_4 	DroppedPacketsInMac 	0
scalar LocScenario.node[594].nic.mac1609_4 	TooLittleTime 	0
scalar LocScenario.node[594].nic.mac1609_4 	TimesIntoBackoff 	2281
scalar LocScenario.node[594].nic.mac1609_4 	SlotsBackoff 	3456
scalar LocScenario.node[594].nic.mac1609_4 	NumInternalContention 	0
scalar LocScenario.node[594].nic.mac1609_4 	totalBusyTime 	1.033441
scalar LocScenario.node[594].veinsmobility 	startTime 	4455.1
scalar LocScenario.node[594].veinsmobility 	totalTime 	228
scalar LocScenario.node[594].veinsmobility 	stopTime 	4683.2
scalar LocScenario.node[594].veinsmobility 	minSpeed 	10.450005706574
scalar LocScenario.node[594].veinsmobility 	maxSpeed 	10.499985698867
scalar LocScenario.node[594].veinsmobility 	totalDistance 	2392.3217813378
scalar LocScenario.node[594].veinsmobility 	totalCO2Emission 	393.49201286677
scalar LocScenario.node[599].appl 	generatedWSMs 	0
scalar LocScenario.node[599].appl 	receivedWSMs 	0
scalar LocScenario.node[599].appl 	generatedBSMs 	2040
scalar LocScenario.node[599].appl 	receivedBSMs 	4830
scalar LocScenario.node[599].appl 	generatedWSAs 	0
scalar LocScenario.node[599].appl 	receivedWSAs 	0
scalar LocScenario.node[599].appl 	rmseSUMGPS 	858947.33579712
scalar LocScenario.node[599].appl 	rmseSUMCP 	1610865.7859055
scalar LocScenario.node[599].appl 	delaySum 	3.7493587841013
scalar LocScenario.node[599].nic.phy80211p 	busyTime 	0.002530156862745
scalar LocScenario.node[599].nic.mac1609_4 	ReceivedUnicastPackets 	0
scalar LocScenario.node[599].nic.mac1609_4 	ReceivedBroadcasts 	4830
scalar LocScenario.node[599].nic.mac1609_4 	SentPackets 	2040
scalar LocScenario.node[599].nic.mac1609_4 	SNIRLostPackets 	133
scalar LocScenario.node[599].nic.mac1609_4 	RXTXLostPackets 	0
scalar LocScenario.node[599].nic.mac1609_4 	TotalLostPackets 	133
scalar LocScenario.node[599].nic.mac1609_4 	DroppedPacketsInMac 	0
scalar LocScenario.node[599].nic.mac1609_4 	TooLittleTime 	0
scalar LocScenario.node[599].nic.mac1609_4 	TimesIntoBackoff 	2040
scalar LocScenario.node[599].nic.mac1609_4 	SlotsBackoff 	3059
scalar LocScenario.node[599].nic.mac1609_4 	NumInternalContention 	0
scalar LocScenario.node[599].nic.mac1609_4 	totalBusyTime 	0.722864
scalar LocScenario.node[599].veinsmobility 	startTime 	4485.1
scalar LocScenario.node[599].veinsmobility 	totalTime 	203.9
scalar LocScenario.node[599].veinsmobility 	stopTime 	4689.1
scalar LocScenario.node[599].veinsmobility 	minSpeed 	10.450015120464
scalar LocScenario.node[599].veinsmobility 	maxSpeed 	10.499998414738
scalar LocScenario.node[599].veinsmobility 	totalDistance 	2138.7739337669
scalar LocScenario.node[599].veinsmobility 	totalCO2Emission 	352.02629304822
scalar LocScenario.node[596].appl 	generatedWSMs 	0
scalar LocScenario.node[596].appl 	receivedWSMs 	0
scalar LocScenario.node[596].appl 	generatedBSMs 	2281
scalar LocScenario.node[596].appl 	receivedBSMs 	7413
scalar LocScenario.node[596].appl 	generatedWSAs 	0
scalar LocScenario.node[596].appl 	receivedWSAs 	0
scalar LocScenario.node[596].appl 	rmseSUMGPS 	23620.268599525
scalar LocScenario.node[596].appl 	rmseSUMCP 	1682173.0233428
scalar LocScenario.node[596].appl 	delaySum 	8.7034412442508
scalar LocScenario.node[596].nic.phy80211p 	busyTime 	0.0033798860149056
scalar LocScenario.node[596].nic.mac1609_4 	ReceivedUnicastPackets 	0
scalar LocScenario.node[596].nic.mac1609_4 	ReceivedBroadcasts 	7413
scalar LocScenario.node[596].nic.mac1609_4 	SentPackets 	2281
scalar LocScenario.node[596].nic.mac1609_4 	SNIRLostPackets 	0
scalar LocScenario.node[596].nic.mac1609_4 	RXTXLostPackets 	0
scalar LocScenario.node[596].nic.mac1609_4 	TotalLostPackets 	0
scalar LocScenario.node[596].nic.mac1609_4 	DroppedPacketsInMac 	0
scalar LocScenario.node[596].nic.mac1609_4 	TooLittleTime 	0
scalar LocScenario.node[596].nic.mac1609_4 	TimesIntoBackoff 	2281
scalar LocScenario.node[596].nic.mac1609_4 	SlotsBackoff 	3471
scalar LocScenario.node[596].nic.mac1609_4 	NumInternalContention 	0
scalar LocScenario.node[596].nic.mac1609_4 	totalBusyTime 	1.010457
scalar LocScenario.node[596].veinsmobility 	startTime 	4470.1
scalar LocScenario.node[596].veinsmobility 	totalTime 	228
scalar LocScenario.node[596].veinsmobility 	stopTime 	4698.2
scalar LocScenario.node[596].veinsmobility 	minSpeed 	10.450018082245
scalar LocScenario.node[596].veinsmobility 	maxSpeed 	10.499974635651
scalar LocScenario.node[596].veinsmobility 	totalDistance 	2394.8613184056
scalar LocScenario.node[596].veinsmobility 	totalCO2Emission 	393.65700422756
scalar LocScenario.node[598].appl 	generatedWSMs 	0
scalar LocScenario.node[598].appl 	receivedWSMs 	0
scalar LocScenario.node[598].appl 	generatedBSMs 	2281
scalar LocScenario.node[598].appl 	receivedBSMs 	5058
scalar LocScenario.node[598].appl 	generatedWSAs 	0
scalar LocScenario.node[598].appl 	receivedWSAs 	0
scalar LocScenario.node[598].appl 	rmseSUMGPS 	819377.89157619
scalar LocScenario.node[598].appl 	rmseSUMCP 	2045145.7015277
scalar LocScenario.node[598].appl 	delaySum 	15.970325856432
scalar LocScenario.node[598].nic.phy80211p 	busyTime 	0.0023061464270056
scalar LocScenario.node[598].nic.mac1609_4 	ReceivedUnicastPackets 	0
scalar LocScenario.node[598].nic.mac1609_4 	ReceivedBroadcasts 	5058
scalar LocScenario.node[598].nic.mac1609_4 	SentPackets 	2281
scalar LocScenario.node[598].nic.mac1609_4 	SNIRLostPackets 	0
scalar LocScenario.node[598].nic.mac1609_4 	RXTXLostPackets 	0
scalar LocScenario.node[598].nic.mac1609_4 	TotalLostPackets 	0
scalar LocScenario.node[598].nic.mac1609_4 	DroppedPacketsInMac 	0
scalar LocScenario.node[598].nic.mac1609_4 	TooLittleTime 	0
scalar LocScenario.node[598].nic.mac1609_4 	TimesIntoBackoff 	2281
scalar LocScenario.node[598].nic.mac1609_4 	SlotsBackoff 	3482
scalar LocScenario.node[598].nic.mac1609_4 	NumInternalContention 	0
scalar LocScenario.node[598].nic.mac1609_4 	totalBusyTime 	0.765537
scalar LocScenario.node[598].veinsmobility 	startTime 	4485.1
scalar LocScenario.node[598].veinsmobility 	totalTime 	228
scalar LocScenario.node[598].veinsmobility 	stopTime 	4713.2
scalar LocScenario.node[598].veinsmobility 	minSpeed 	10.450024553062
scalar LocScenario.node[598].veinsmobility 	maxSpeed 	10.499994430866
scalar LocScenario.node[598].veinsmobility 	totalDistance 	2392.3277672679
scalar LocScenario.node[598].veinsmobility 	totalCO2Emission 	393.68629733739
scalar LocScenario.outagesServer.appl 	generatedWSMs 	0
scalar LocScenario.outagesServer.appl 	receivedWSMs 	0
scalar LocScenario.outagesServer.appl 	generatedBSMs 	0
scalar LocScenario.outagesServer.appl 	receivedBSMs 	0
scalar LocScenario.outagesServer.appl 	generatedWSAs 	0
scalar LocScenario.outagesServer.appl 	receivedWSAs 	0
scalar LocScenario.outagesServer.nic.phy80211p 	busyTime 	0
scalar LocScenario.outagesServer.nic.mac1609_4 	ReceivedUnicastPackets 	0
scalar LocScenario.outagesServer.nic.mac1609_4 	ReceivedBroadcasts 	0
scalar LocScenario.outagesServer.nic.mac1609_4 	SentPackets 	0
scalar LocScenario.outagesServer.nic.mac1609_4 	SNIRLostPackets 	0
scalar LocScenario.outagesServer.nic.mac1609_4 	RXTXLostPackets 	0
scalar LocScenario.outagesServer.nic.mac1609_4 	TotalLostPackets 	0
scalar LocScenario.outagesServer.nic.mac1609_4 	DroppedPacketsInMac 	0
scalar LocScenario.outagesServer.nic.mac1609_4 	TooLittleTime 	0
scalar LocScenario.outagesServer.nic.mac1609_4 	TimesIntoBackoff 	0
scalar LocScenario.outagesServer.nic.mac1609_4 	SlotsBackoff 	0
scalar LocScenario.outagesServer.nic.mac1609_4 	NumInternalContention 	0
scalar LocScenario.outagesServer.nic.mac1609_4 	totalBusyTime 	0
