version 2
run StVehScenario_600_25-0-20171024-13:26:44-13227
attr configname StVehScenario_600_25
attr datetime 20171024-13:26:44
attr densityMovVeh 600
attr densityStatVeh 25
attr experiment StVehScenario_600_25
attr inifile omnetpp.ini
attr iterationvars "$densityMovVeh=600, $densityStatVeh=25"
attr iterationvars2 "$densityMovVeh=600, $densityStatVeh=25, $repetition=0"
attr measurement "$densityMovVeh=600, $densityStatVeh=25"
attr network com.liborio.sbrc2018.StVehScenario_600_25
attr processid 13227
attr repetition 0
attr replication #0
attr resultdir results
attr runnumber 0
attr seedset 0
param **.coreDebug false
param **.debug false
param *.**.nic.mac1609_4.bitrate 6Mbps
param *.**.nic.mac1609_4.txPower 20mW
param *.**.nic.mac1609_4.useServiceChannel true
param *.**.nic.phy80211p.analogueModels "xmldoc(\"config.xml\")"
param *.**.nic.phy80211p.antenna "xmldoc(\"antenna.xml\", \"/root/Antenna[@id='monopole']\")"
param *.**.nic.phy80211p.decider "xmldoc(\"config.xml\")"
param *.**.nic.phy80211p.sensitivity -84.39dBm
param *.**.nic.phy80211p.thermalNoise -110dBm
param *.**.nic.phy80211p.usePropagationDelay true
param *.**.nic.phy80211p.useThermalNoise true
param *.annotations.draw true
param *.connectionManager.drawMaxIntfDist false
param *.connectionManager.maxInterfDist 2600m
param *.connectionManager.sendDirect true
param *.manager.autoShutdown true
param *.manager.host "\"localhost\""
param *.manager.launchConfig "xmldoc(string(${densityMovVeh=600})+\"_\"+ string(${repetition})+\".launchd.xml\")"
param *.manager.port 9999
param *.manager.updateInterval 1s
param *.node[*].appl.beaconInterval 1s
param *.node[*].appl.dataOnSch false
param *.node[*].appl.densityMovVeh ${densityMovVeh}
param *.node[*].appl.densityStatVeh "${densityStatVeh =25}"
param *.node[*].appl.headerLength "80 bit"
param *.node[*].appl.seedPar ${repetition}
param *.node[*].appl.sendBeacons true
param *.node[*].appl.wsmInterval 5s
param *.node[*].applType "\"Communication\""
param *.node[*].veinsmobility.x 0
param *.node[*].veinsmobility.y 0
param *.node[*].veinsmobility.z 1.895
param *.node[*].veinsmobilityType.debug true
param *.playgroundSizeX 2500m
param *.playgroundSizeY 2500m
param *.playgroundSizeZ 50m
param *.rsu[*].appl.beaconInterval 1s
param *.rsu[*].appl.beaconUserPriority 7
param *.rsu[*].appl.dataOnSch false
param *.rsu[*].appl.dataUserPriority 5
param *.rsu[*].appl.headerLength "80 bit"
param *.rsu[*].appl.seedPar ${repetition}
param *.rsu[*].appl.sendBeacons true
param *.rsu[*].applType "\"StatVehicle\""
param *.rsu[0].mobility.x 270
param *.rsu[0].mobility.y 270
param *.rsu[0].mobility.z 1.89
param *.rsu[100].mobility.x 898.042238418
param *.rsu[100].mobility.y 898.042238418
param *.rsu[100].mobility.z 1.89
param *.rsu[101].mobility.x 822.189249673
param *.rsu[101].mobility.y 822.189249673
param *.rsu[101].mobility.z 1.89
param *.rsu[102].mobility.x 836.359868671
param *.rsu[102].mobility.y 836.359868671
param *.rsu[102].mobility.z 1.89
param *.rsu[103].mobility.x 1080
param *.rsu[103].mobility.y 1080
param *.rsu[103].mobility.z 1.89
param *.rsu[104].mobility.x 767.051527628
param *.rsu[104].mobility.y 767.051527628
param *.rsu[104].mobility.z 1.89
param *.rsu[105].mobility.x 878.992144809
param *.rsu[105].mobility.y 878.992144809
param *.rsu[105].mobility.z 1.89
param *.rsu[106].mobility.x 669.695119428
param *.rsu[106].mobility.y 669.695119428
param *.rsu[106].mobility.z 1.89
param *.rsu[107].mobility.x 870.380386584
param *.rsu[107].mobility.y 870.380386584
param *.rsu[107].mobility.z 1.89
param *.rsu[108].mobility.x 1080
param *.rsu[108].mobility.y 1080
param *.rsu[108].mobility.z 1.89
param *.rsu[109].mobility.x 808.957362213
param *.rsu[109].mobility.y 808.957362213
param *.rsu[109].mobility.z 1.89
param *.rsu[10].mobility.x 113.511171913
param *.rsu[10].mobility.y 113.511171913
param *.rsu[10].mobility.z 1.89
param *.rsu[110].mobility.x 731.938231075
param *.rsu[110].mobility.y 731.938231075
param *.rsu[110].mobility.z 1.89
param *.rsu[111].mobility.x 720.201453009
param *.rsu[111].mobility.y 720.201453009
param *.rsu[111].mobility.z 1.89
param *.rsu[112].mobility.x 270
param *.rsu[112].mobility.y 270
param *.rsu[112].mobility.z 1.89
param *.rsu[113].mobility.x 0
param *.rsu[113].mobility.y 0
param *.rsu[113].mobility.z 1.89
param *.rsu[114].mobility.x 0
param *.rsu[114].mobility.y 0
param *.rsu[114].mobility.z 1.89
param *.rsu[115].mobility.x 0
param *.rsu[115].mobility.y 0
param *.rsu[115].mobility.z 1.89
param *.rsu[116].mobility.x 0
param *.rsu[116].mobility.y 0
param *.rsu[116].mobility.z 1.89
param *.rsu[117].mobility.x 270
param *.rsu[117].mobility.y 270
param *.rsu[117].mobility.z 1.89
param *.rsu[118].mobility.x 94.8155903463
param *.rsu[118].mobility.y 94.8155903463
param *.rsu[118].mobility.z 1.89
param *.rsu[119].mobility.x 270
param *.rsu[119].mobility.y 270
param *.rsu[119].mobility.z 1.89
param *.rsu[11].mobility.x 100.067082375
param *.rsu[11].mobility.y 100.067082375
param *.rsu[11].mobility.z 1.89
param *.rsu[120].mobility.x 270
param *.rsu[120].mobility.y 270
param *.rsu[120].mobility.z 1.89
param *.rsu[121].mobility.x 1.76452476148
param *.rsu[121].mobility.y 1.76452476148
param *.rsu[121].mobility.z 1.89
param *.rsu[122].mobility.x 0
param *.rsu[122].mobility.y 0
param *.rsu[122].mobility.z 1.89
param *.rsu[123].mobility.x 25.0732079803
param *.rsu[123].mobility.y 25.0732079803
param *.rsu[123].mobility.z 1.89
param *.rsu[124].mobility.x 270
param *.rsu[124].mobility.y 270
param *.rsu[124].mobility.z 1.89
param *.rsu[125].mobility.x 0
param *.rsu[125].mobility.y 0
param *.rsu[125].mobility.z 1.89
param *.rsu[126].mobility.x 270
param *.rsu[126].mobility.y 270
param *.rsu[126].mobility.z 1.89
param *.rsu[127].mobility.x 270
param *.rsu[127].mobility.y 270
param *.rsu[127].mobility.z 1.89
param *.rsu[128].mobility.x 272.535466844
param *.rsu[128].mobility.y 272.535466844
param *.rsu[128].mobility.z 1.89
param *.rsu[129].mobility.x 159.34422037
param *.rsu[129].mobility.y 159.34422037
param *.rsu[129].mobility.z 1.89
param *.rsu[12].mobility.x 0
param *.rsu[12].mobility.y 0
param *.rsu[12].mobility.z 1.89
param *.rsu[130].mobility.x 540
param *.rsu[130].mobility.y 540
param *.rsu[130].mobility.z 1.89
param *.rsu[131].mobility.x 270
param *.rsu[131].mobility.y 270
param *.rsu[131].mobility.z 1.89
param *.rsu[132].mobility.x 540
param *.rsu[132].mobility.y 540
param *.rsu[132].mobility.z 1.89
param *.rsu[133].mobility.x 249.561683274
param *.rsu[133].mobility.y 249.561683274
param *.rsu[133].mobility.z 1.89
param *.rsu[134].mobility.x 540
param *.rsu[134].mobility.y 540
param *.rsu[134].mobility.z 1.89
param *.rsu[135].mobility.x 157.438045488
param *.rsu[135].mobility.y 157.438045488
param *.rsu[135].mobility.z 1.89
param *.rsu[136].mobility.x 25.4873171607
param *.rsu[136].mobility.y 25.4873171607
param *.rsu[136].mobility.z 1.89
param *.rsu[137].mobility.x 94.7000383009
param *.rsu[137].mobility.y 94.7000383009
param *.rsu[137].mobility.z 1.89
param *.rsu[138].mobility.x 540
param *.rsu[138].mobility.y 540
param *.rsu[138].mobility.z 1.89
param *.rsu[139].mobility.x 270
param *.rsu[139].mobility.y 270
param *.rsu[139].mobility.z 1.89
param *.rsu[13].mobility.x 20.8926913346
param *.rsu[13].mobility.y 20.8926913346
param *.rsu[13].mobility.z 1.89
param *.rsu[140].mobility.x 585.363789643
param *.rsu[140].mobility.y 585.363789643
param *.rsu[140].mobility.z 1.89
param *.rsu[141].mobility.x 479.971403761
param *.rsu[141].mobility.y 479.971403761
param *.rsu[141].mobility.z 1.89
param *.rsu[142].mobility.x 810
param *.rsu[142].mobility.y 810
param *.rsu[142].mobility.z 1.89
param *.rsu[143].mobility.x 810
param *.rsu[143].mobility.y 810
param *.rsu[143].mobility.z 1.89
param *.rsu[144].mobility.x 540
param *.rsu[144].mobility.y 540
param *.rsu[144].mobility.z 1.89
param *.rsu[145].mobility.x 767.314041596
param *.rsu[145].mobility.y 767.314041596
param *.rsu[145].mobility.z 1.89
param *.rsu[146].mobility.x 540
param *.rsu[146].mobility.y 540
param *.rsu[146].mobility.z 1.89
param *.rsu[147].mobility.x 810
param *.rsu[147].mobility.y 810
param *.rsu[147].mobility.z 1.89
param *.rsu[148].mobility.x 590.478212
param *.rsu[148].mobility.y 590.478212
param *.rsu[148].mobility.z 1.89
param *.rsu[149].mobility.x 681.613636736
param *.rsu[149].mobility.y 681.613636736
param *.rsu[149].mobility.z 1.89
param *.rsu[14].mobility.x 0
param *.rsu[14].mobility.y 0
param *.rsu[14].mobility.z 1.89
param *.rsu[15].mobility.x 0
param *.rsu[15].mobility.y 0
param *.rsu[15].mobility.z 1.89
param *.rsu[16].mobility.x 270
param *.rsu[16].mobility.y 270
param *.rsu[16].mobility.z 1.89
param *.rsu[17].mobility.x 0
param *.rsu[17].mobility.y 0
param *.rsu[17].mobility.z 1.89
param *.rsu[18].mobility.x 270
param *.rsu[18].mobility.y 270
param *.rsu[18].mobility.z 1.89
param *.rsu[19].mobility.x 0
param *.rsu[19].mobility.y 0
param *.rsu[19].mobility.z 1.89
param *.rsu[1].mobility.x 92.7643484709
param *.rsu[1].mobility.y 92.7643484709
param *.rsu[1].mobility.z 1.89
param *.rsu[20].mobility.x 0
param *.rsu[20].mobility.y 0
param *.rsu[20].mobility.z 1.89
param *.rsu[21].mobility.x 0
param *.rsu[21].mobility.y 0
param *.rsu[21].mobility.z 1.89
param *.rsu[22].mobility.x 270
param *.rsu[22].mobility.y 270
param *.rsu[22].mobility.z 1.89
param *.rsu[23].mobility.x 5.10034429379
param *.rsu[23].mobility.y 5.10034429379
param *.rsu[23].mobility.z 1.89
param *.rsu[24].mobility.x 28.0544852435
param *.rsu[24].mobility.y 28.0544852435
param *.rsu[24].mobility.z 1.89
param *.rsu[25].mobility.x 35.7196877303
param *.rsu[25].mobility.y 35.7196877303
param *.rsu[25].mobility.z 1.89
param *.rsu[26].mobility.x 270
param *.rsu[26].mobility.y 270
param *.rsu[26].mobility.z 1.89
param *.rsu[27].mobility.x 270
param *.rsu[27].mobility.y 270
param *.rsu[27].mobility.z 1.89
param *.rsu[28].mobility.x 270
param *.rsu[28].mobility.y 270
param *.rsu[28].mobility.z 1.89
param *.rsu[29].mobility.x 540
param *.rsu[29].mobility.y 540
param *.rsu[29].mobility.z 1.89
param *.rsu[2].mobility.x 75.0866128347
param *.rsu[2].mobility.y 75.0866128347
param *.rsu[2].mobility.z 1.89
param *.rsu[30].mobility.x 315.898779891
param *.rsu[30].mobility.y 315.898779891
param *.rsu[30].mobility.z 1.89
param *.rsu[31].mobility.x 354.429801818
param *.rsu[31].mobility.y 354.429801818
param *.rsu[31].mobility.z 1.89
param *.rsu[32].mobility.x 232.048584488
param *.rsu[32].mobility.y 232.048584488
param *.rsu[32].mobility.z 1.89
param *.rsu[33].mobility.x 270
param *.rsu[33].mobility.y 270
param *.rsu[33].mobility.z 1.89
param *.rsu[34].mobility.x 94.8306697522
param *.rsu[34].mobility.y 94.8306697522
param *.rsu[34].mobility.z 1.89
param *.rsu[35].mobility.x 540
param *.rsu[35].mobility.y 540
param *.rsu[35].mobility.z 1.89
param *.rsu[36].mobility.x 166.509203508
param *.rsu[36].mobility.y 166.509203508
param *.rsu[36].mobility.z 1.89
param *.rsu[37].mobility.x 233.177641764
param *.rsu[37].mobility.y 233.177641764
param *.rsu[37].mobility.z 1.89
param *.rsu[38].mobility.x 405.408536656
param *.rsu[38].mobility.y 405.408536656
param *.rsu[38].mobility.z 1.89
param *.rsu[39].mobility.x 319.212805912
param *.rsu[39].mobility.y 319.212805912
param *.rsu[39].mobility.z 1.89
param *.rsu[3].mobility.x 148.773821619
param *.rsu[3].mobility.y 148.773821619
param *.rsu[3].mobility.z 1.89
param *.rsu[40].mobility.x 176.779812368
param *.rsu[40].mobility.y 176.779812368
param *.rsu[40].mobility.z 1.89
param *.rsu[41].mobility.x 540
param *.rsu[41].mobility.y 540
param *.rsu[41].mobility.z 1.89
param *.rsu[42].mobility.x 270
param *.rsu[42].mobility.y 270
param *.rsu[42].mobility.z 1.89
param *.rsu[43].mobility.x 540
param *.rsu[43].mobility.y 540
param *.rsu[43].mobility.z 1.89
param *.rsu[44].mobility.x 257.466528631
param *.rsu[44].mobility.y 257.466528631
param *.rsu[44].mobility.z 1.89
param *.rsu[45].mobility.x 540
param *.rsu[45].mobility.y 540
param *.rsu[45].mobility.z 1.89
param *.rsu[46].mobility.x 343.334382122
param *.rsu[46].mobility.y 343.334382122
param *.rsu[46].mobility.z 1.89
param *.rsu[47].mobility.x 267.841797842
param *.rsu[47].mobility.y 267.841797842
param *.rsu[47].mobility.z 1.89
param *.rsu[48].mobility.x 393.251497456
param *.rsu[48].mobility.y 393.251497456
param *.rsu[48].mobility.z 1.89
param *.rsu[49].mobility.x 270
param *.rsu[49].mobility.y 270
param *.rsu[49].mobility.z 1.89
param *.rsu[4].mobility.x 0
param *.rsu[4].mobility.y 0
param *.rsu[4].mobility.z 1.89
param *.rsu[50].mobility.x 403.560228127
param *.rsu[50].mobility.y 403.560228127
param *.rsu[50].mobility.z 1.89
param *.rsu[51].mobility.x 270
param *.rsu[51].mobility.y 270
param *.rsu[51].mobility.z 1.89
param *.rsu[52].mobility.x 270
param *.rsu[52].mobility.y 270
param *.rsu[52].mobility.z 1.89
param *.rsu[53].mobility.x 270
param *.rsu[53].mobility.y 270
param *.rsu[53].mobility.z 1.89
param *.rsu[54].mobility.x 270
param *.rsu[54].mobility.y 270
param *.rsu[54].mobility.z 1.89
param *.rsu[55].mobility.x 540
param *.rsu[55].mobility.y 540
param *.rsu[55].mobility.z 1.89
param *.rsu[56].mobility.x 683.852798011
param *.rsu[56].mobility.y 683.852798011
param *.rsu[56].mobility.z 1.89
param *.rsu[57].mobility.x 810
param *.rsu[57].mobility.y 810
param *.rsu[57].mobility.z 1.89
param *.rsu[58].mobility.x 527.342260398
param *.rsu[58].mobility.y 527.342260398
param *.rsu[58].mobility.z 1.89
param *.rsu[59].mobility.x 540
param *.rsu[59].mobility.y 540
param *.rsu[59].mobility.z 1.89
param *.rsu[5].mobility.x 97.2946245014
param *.rsu[5].mobility.y 97.2946245014
param *.rsu[5].mobility.z 1.89
param *.rsu[60].mobility.x 658.447580953
param *.rsu[60].mobility.y 658.447580953
param *.rsu[60].mobility.z 1.89
param *.rsu[61].mobility.x 540
param *.rsu[61].mobility.y 540
param *.rsu[61].mobility.z 1.89
param *.rsu[62].mobility.x 540
param *.rsu[62].mobility.y 540
param *.rsu[62].mobility.z 1.89
param *.rsu[63].mobility.x 540
param *.rsu[63].mobility.y 540
param *.rsu[63].mobility.z 1.89
param *.rsu[64].mobility.x 540
param *.rsu[64].mobility.y 540
param *.rsu[64].mobility.z 1.89
param *.rsu[65].mobility.x 540
param *.rsu[65].mobility.y 540
param *.rsu[65].mobility.z 1.89
param *.rsu[66].mobility.x 406.039787377
param *.rsu[66].mobility.y 406.039787377
param *.rsu[66].mobility.z 1.89
param *.rsu[67].mobility.x 508.705323094
param *.rsu[67].mobility.y 508.705323094
param *.rsu[67].mobility.z 1.89
param *.rsu[68].mobility.x 390.605716943
param *.rsu[68].mobility.y 390.605716943
param *.rsu[68].mobility.z 1.89
param *.rsu[69].mobility.x 810
param *.rsu[69].mobility.y 810
param *.rsu[69].mobility.z 1.89
param *.rsu[6].mobility.x 109.235626435
param *.rsu[6].mobility.y 109.235626435
param *.rsu[6].mobility.z 1.89
param *.rsu[70].mobility.x 540
param *.rsu[70].mobility.y 540
param *.rsu[70].mobility.z 1.89
param *.rsu[71].mobility.x 531.798474816
param *.rsu[71].mobility.y 531.798474816
param *.rsu[71].mobility.z 1.89
param *.rsu[72].mobility.x 500.075525304
param *.rsu[72].mobility.y 500.075525304
param *.rsu[72].mobility.z 1.89
param *.rsu[73].mobility.x 810
param *.rsu[73].mobility.y 810
param *.rsu[73].mobility.z 1.89
param *.rsu[74].mobility.x 540
param *.rsu[74].mobility.y 540
param *.rsu[74].mobility.z 1.89
param *.rsu[75].mobility.x 540
param *.rsu[75].mobility.y 540
param *.rsu[75].mobility.z 1.89
param *.rsu[76].mobility.x 540
param *.rsu[76].mobility.y 540
param *.rsu[76].mobility.z 1.89
param *.rsu[77].mobility.x 520.867726366
param *.rsu[77].mobility.y 520.867726366
param *.rsu[77].mobility.z 1.89
param *.rsu[78].mobility.x 538.76133598
param *.rsu[78].mobility.y 538.76133598
param *.rsu[78].mobility.z 1.89
param *.rsu[79].mobility.x 546.971089661
param *.rsu[79].mobility.y 546.971089661
param *.rsu[79].mobility.z 1.89
param *.rsu[7].mobility.x 0
param *.rsu[7].mobility.y 0
param *.rsu[7].mobility.z 1.89
param *.rsu[80].mobility.x 810
param *.rsu[80].mobility.y 810
param *.rsu[80].mobility.z 1.89
param *.rsu[81].mobility.x 540
param *.rsu[81].mobility.y 540
param *.rsu[81].mobility.z 1.89
param *.rsu[82].mobility.x 374.233050099
param *.rsu[82].mobility.y 374.233050099
param *.rsu[82].mobility.z 1.89
param *.rsu[83].mobility.x 540
param *.rsu[83].mobility.y 540
param *.rsu[83].mobility.z 1.89
param *.rsu[84].mobility.x 1080
param *.rsu[84].mobility.y 1080
param *.rsu[84].mobility.z 1.89
param *.rsu[85].mobility.x 825.747148614
param *.rsu[85].mobility.y 825.747148614
param *.rsu[85].mobility.z 1.89
param *.rsu[86].mobility.x 1080
param *.rsu[86].mobility.y 1080
param *.rsu[86].mobility.z 1.89
param *.rsu[87].mobility.x 909.729761595
param *.rsu[87].mobility.y 909.729761595
param *.rsu[87].mobility.z 1.89
param *.rsu[88].mobility.x 794.315706683
param *.rsu[88].mobility.y 794.315706683
param *.rsu[88].mobility.z 1.89
param *.rsu[89].mobility.x 810
param *.rsu[89].mobility.y 810
param *.rsu[89].mobility.z 1.89
param *.rsu[8].mobility.x 0
param *.rsu[8].mobility.y 0
param *.rsu[8].mobility.z 1.89
param *.rsu[90].mobility.x 912.54251801
param *.rsu[90].mobility.y 912.54251801
param *.rsu[90].mobility.z 1.89
param *.rsu[91].mobility.x 810
param *.rsu[91].mobility.y 810
param *.rsu[91].mobility.z 1.89
param *.rsu[92].mobility.x 786.004560753
param *.rsu[92].mobility.y 786.004560753
param *.rsu[92].mobility.z 1.89
param *.rsu[93].mobility.x 830.141868946
param *.rsu[93].mobility.y 830.141868946
param *.rsu[93].mobility.z 1.89
param *.rsu[94].mobility.x 684.774037432
param *.rsu[94].mobility.y 684.774037432
param *.rsu[94].mobility.z 1.89
param *.rsu[95].mobility.x 1080
param *.rsu[95].mobility.y 1080
param *.rsu[95].mobility.z 1.89
param *.rsu[96].mobility.x 1080
param *.rsu[96].mobility.y 1080
param *.rsu[96].mobility.z 1.89
param *.rsu[97].mobility.x 873.039384638
param *.rsu[97].mobility.y 873.039384638
param *.rsu[97].mobility.z 1.89
param *.rsu[98].mobility.x 776.3241102
param *.rsu[98].mobility.y 776.3241102
param *.rsu[98].mobility.z 1.89
param *.rsu[99].mobility.x 810
param *.rsu[99].mobility.y 810
param *.rsu[99].mobility.z 1.89
param *.rsu[9].mobility.x 0
param *.rsu[9].mobility.y 0
param *.rsu[9].mobility.z 1.89

scalar . 	densityMovVeh 	600
scalar . 	densityStatVeh 	25
scalar StVehScenario_600_25.node[481].appl 	generatedWSMs 	0
scalar StVehScenario_600_25.node[481].appl 	receivedWSMs 	0
scalar StVehScenario_600_25.node[481].appl 	generatedBSMs 	8
scalar StVehScenario_600_25.node[481].appl 	receivedBSMs 	675
scalar StVehScenario_600_25.node[481].appl 	generatedWSAs 	0
scalar StVehScenario_600_25.node[481].appl 	receivedWSAs 	0
scalar StVehScenario_600_25.node[481].appl 	rmseSUMGPS 	15.597260914936
scalar StVehScenario_600_25.node[481].appl 	rmseSUMCP 	5.5187214706254e-309
scalar StVehScenario_600_25.node[481].appl 	delaySum 	6.898400172677e-310
scalar StVehScenario_600_25.node[481].nic.phy80211p 	busyTime 	0.0092820000000001
scalar StVehScenario_600_25.node[481].nic.mac1609_4 	ReceivedUnicastPackets 	0
scalar StVehScenario_600_25.node[481].nic.mac1609_4 	ReceivedBroadcasts 	675
scalar StVehScenario_600_25.node[481].nic.mac1609_4 	SentPackets 	8
scalar StVehScenario_600_25.node[481].nic.mac1609_4 	SNIRLostPackets 	39
scalar StVehScenario_600_25.node[481].nic.mac1609_4 	RXTXLostPackets 	0
scalar StVehScenario_600_25.node[481].nic.mac1609_4 	TotalLostPackets 	39
scalar StVehScenario_600_25.node[481].nic.mac1609_4 	DroppedPacketsInMac 	0
scalar StVehScenario_600_25.node[481].nic.mac1609_4 	TooLittleTime 	0
scalar StVehScenario_600_25.node[481].nic.mac1609_4 	TimesIntoBackoff 	8
scalar StVehScenario_600_25.node[481].nic.mac1609_4 	SlotsBackoff 	14
scalar StVehScenario_600_25.node[481].nic.mac1609_4 	NumInternalContention 	0
scalar StVehScenario_600_25.node[481].nic.mac1609_4 	totalBusyTime 	0.073744
scalar StVehScenario_600_25.node[481].veinsmobility 	startTime 	6
scalar StVehScenario_600_25.node[481].veinsmobility 	totalTime 	7
scalar StVehScenario_600_25.node[481].veinsmobility 	stopTime 	14
scalar StVehScenario_600_25.node[481].veinsmobility 	minSpeed 	3.0885158930841
scalar StVehScenario_600_25.node[481].veinsmobility 	maxSpeed 	13.794148226939
scalar StVehScenario_600_25.node[481].veinsmobility 	totalDistance 	55.173402578821
scalar StVehScenario_600_25.node[481].veinsmobility 	totalCO2Emission 	34.187348592487
scalar StVehScenario_600_25.node[204].appl 	generatedWSMs 	0
scalar StVehScenario_600_25.node[204].appl 	receivedWSMs 	0
scalar StVehScenario_600_25.node[204].appl 	generatedBSMs 	19
scalar StVehScenario_600_25.node[204].appl 	receivedBSMs 	803
scalar StVehScenario_600_25.node[204].appl 	generatedWSAs 	0
scalar StVehScenario_600_25.node[204].appl 	receivedWSAs 	0
scalar StVehScenario_600_25.node[204].appl 	rmseSUMGPS 	64.663159944945
scalar StVehScenario_600_25.node[204].appl 	rmseSUMCP 	0
scalar StVehScenario_600_25.node[204].appl 	delaySum 	0
scalar StVehScenario_600_25.node[204].nic.phy80211p 	busyTime 	0.0044884210526317
scalar StVehScenario_600_25.node[204].nic.mac1609_4 	ReceivedUnicastPackets 	0
scalar StVehScenario_600_25.node[204].nic.mac1609_4 	ReceivedBroadcasts 	803
scalar StVehScenario_600_25.node[204].nic.mac1609_4 	SentPackets 	19
scalar StVehScenario_600_25.node[204].nic.mac1609_4 	SNIRLostPackets 	17
scalar StVehScenario_600_25.node[204].nic.mac1609_4 	RXTXLostPackets 	0
scalar StVehScenario_600_25.node[204].nic.mac1609_4 	TotalLostPackets 	17
scalar StVehScenario_600_25.node[204].nic.mac1609_4 	DroppedPacketsInMac 	0
scalar StVehScenario_600_25.node[204].nic.mac1609_4 	TooLittleTime 	0
scalar StVehScenario_600_25.node[204].nic.mac1609_4 	TimesIntoBackoff 	19
scalar StVehScenario_600_25.node[204].nic.mac1609_4 	SlotsBackoff 	27
scalar StVehScenario_600_25.node[204].nic.mac1609_4 	NumInternalContention 	0
scalar StVehScenario_600_25.node[204].nic.mac1609_4 	totalBusyTime 	0.086963
scalar StVehScenario_600_25.node[204].veinsmobility 	startTime 	1
scalar StVehScenario_600_25.node[204].veinsmobility 	totalTime 	18
scalar StVehScenario_600_25.node[204].veinsmobility 	stopTime 	20
scalar StVehScenario_600_25.node[204].veinsmobility 	minSpeed 	3.943374525189
scalar StVehScenario_600_25.node[204].veinsmobility 	maxSpeed 	13.884612398387
scalar StVehScenario_600_25.node[204].veinsmobility 	totalDistance 	214.03307879612
scalar StVehScenario_600_25.node[204].veinsmobility 	totalCO2Emission 	56.334518323851
scalar StVehScenario_600_25.node[140].appl 	generatedWSMs 	0
scalar StVehScenario_600_25.node[140].appl 	receivedWSMs 	0
scalar StVehScenario_600_25.node[140].appl 	generatedBSMs 	21
scalar StVehScenario_600_25.node[140].appl 	receivedBSMs 	1555
scalar StVehScenario_600_25.node[140].appl 	generatedWSAs 	0
scalar StVehScenario_600_25.node[140].appl 	receivedWSAs 	0
scalar StVehScenario_600_25.node[140].appl 	rmseSUMGPS 	57.283092690623
scalar StVehScenario_600_25.node[140].appl 	rmseSUMCP 	0
scalar StVehScenario_600_25.node[140].appl 	delaySum 	0
scalar StVehScenario_600_25.node[140].nic.phy80211p 	busyTime 	0.0078891428571429
scalar StVehScenario_600_25.node[140].nic.mac1609_4 	ReceivedUnicastPackets 	0
scalar StVehScenario_600_25.node[140].nic.mac1609_4 	ReceivedBroadcasts 	1555
scalar StVehScenario_600_25.node[140].nic.mac1609_4 	SentPackets 	21
scalar StVehScenario_600_25.node[140].nic.mac1609_4 	SNIRLostPackets 	38
scalar StVehScenario_600_25.node[140].nic.mac1609_4 	RXTXLostPackets 	0
scalar StVehScenario_600_25.node[140].nic.mac1609_4 	TotalLostPackets 	38
scalar StVehScenario_600_25.node[140].nic.mac1609_4 	DroppedPacketsInMac 	0
scalar StVehScenario_600_25.node[140].nic.mac1609_4 	TooLittleTime 	0
scalar StVehScenario_600_25.node[140].nic.mac1609_4 	TimesIntoBackoff 	21
scalar StVehScenario_600_25.node[140].nic.mac1609_4 	SlotsBackoff 	29
scalar StVehScenario_600_25.node[140].nic.mac1609_4 	NumInternalContention 	0
scalar StVehScenario_600_25.node[140].nic.mac1609_4 	totalBusyTime 	0.166837
scalar StVehScenario_600_25.node[140].veinsmobility 	startTime 	1
scalar StVehScenario_600_25.node[140].veinsmobility 	totalTime 	20
scalar StVehScenario_600_25.node[140].veinsmobility 	stopTime 	22
scalar StVehScenario_600_25.node[140].veinsmobility 	minSpeed 	3.9140991514056
scalar StVehScenario_600_25.node[140].veinsmobility 	maxSpeed 	13.896179260071
scalar StVehScenario_600_25.node[140].veinsmobility 	totalDistance 	240.4008763986
scalar StVehScenario_600_25.node[140].veinsmobility 	totalCO2Emission 	59.861444390812
scalar StVehScenario_600_25.node[351].appl 	generatedWSMs 	0
scalar StVehScenario_600_25.node[351].appl 	receivedWSMs 	0
scalar StVehScenario_600_25.node[351].appl 	generatedBSMs 	22
scalar StVehScenario_600_25.node[351].appl 	receivedBSMs 	1168
scalar StVehScenario_600_25.node[351].appl 	generatedWSAs 	0
scalar StVehScenario_600_25.node[351].appl 	receivedWSAs 	0
scalar StVehScenario_600_25.node[351].appl 	rmseSUMGPS 	68.24103529208
scalar StVehScenario_600_25.node[351].appl 	rmseSUMCP 	0
scalar StVehScenario_600_25.node[351].appl 	delaySum 	0
scalar StVehScenario_600_25.node[351].nic.phy80211p 	busyTime 	0.0055214545454547
scalar StVehScenario_600_25.node[351].nic.mac1609_4 	ReceivedUnicastPackets 	0
scalar StVehScenario_600_25.node[351].nic.mac1609_4 	ReceivedBroadcasts 	1168
scalar StVehScenario_600_25.node[351].nic.mac1609_4 	SentPackets 	22
scalar StVehScenario_600_25.node[351].nic.mac1609_4 	SNIRLostPackets 	0
scalar StVehScenario_600_25.node[351].nic.mac1609_4 	RXTXLostPackets 	0
scalar StVehScenario_600_25.node[351].nic.mac1609_4 	TotalLostPackets 	0
scalar StVehScenario_600_25.node[351].nic.mac1609_4 	DroppedPacketsInMac 	0
scalar StVehScenario_600_25.node[351].nic.mac1609_4 	TooLittleTime 	0
scalar StVehScenario_600_25.node[351].nic.mac1609_4 	TimesIntoBackoff 	22
scalar StVehScenario_600_25.node[351].nic.mac1609_4 	SlotsBackoff 	27
scalar StVehScenario_600_25.node[351].nic.mac1609_4 	NumInternalContention 	0
scalar StVehScenario_600_25.node[351].nic.mac1609_4 	totalBusyTime 	0.123782
scalar StVehScenario_600_25.node[351].veinsmobility 	startTime 	3
scalar StVehScenario_600_25.node[351].veinsmobility 	totalTime 	21
scalar StVehScenario_600_25.node[351].veinsmobility 	stopTime 	25
scalar StVehScenario_600_25.node[351].veinsmobility 	minSpeed 	2.5998845866141
scalar StVehScenario_600_25.node[351].veinsmobility 	maxSpeed 	13.89079455687
scalar StVehScenario_600_25.node[351].veinsmobility 	totalDistance 	246.70969432064
scalar StVehScenario_600_25.node[351].veinsmobility 	totalCO2Emission 	63.013172701639
scalar StVehScenario_600_25.node[460].appl 	generatedWSMs 	0
scalar StVehScenario_600_25.node[460].appl 	receivedWSMs 	0
scalar StVehScenario_600_25.node[460].appl 	generatedBSMs 	21
scalar StVehScenario_600_25.node[460].appl 	receivedBSMs 	1460
scalar StVehScenario_600_25.node[460].appl 	generatedWSAs 	0
scalar StVehScenario_600_25.node[460].appl 	receivedWSAs 	0
scalar StVehScenario_600_25.node[460].appl 	rmseSUMGPS 	49.310531015258
scalar StVehScenario_600_25.node[460].appl 	rmseSUMCP 	8.1918311723663e-315
scalar StVehScenario_600_25.node[460].appl 	delaySum 	3.9008806823964e-316
scalar StVehScenario_600_25.node[460].nic.phy80211p 	busyTime 	0.0073592380952382
scalar StVehScenario_600_25.node[460].nic.mac1609_4 	ReceivedUnicastPackets 	0
scalar StVehScenario_600_25.node[460].nic.mac1609_4 	ReceivedBroadcasts 	1460
scalar StVehScenario_600_25.node[460].nic.mac1609_4 	SentPackets 	21
scalar StVehScenario_600_25.node[460].nic.mac1609_4 	SNIRLostPackets 	26
scalar StVehScenario_600_25.node[460].nic.mac1609_4 	RXTXLostPackets 	0
scalar StVehScenario_600_25.node[460].nic.mac1609_4 	TotalLostPackets 	26
scalar StVehScenario_600_25.node[460].nic.mac1609_4 	DroppedPacketsInMac 	0
scalar StVehScenario_600_25.node[460].nic.mac1609_4 	TooLittleTime 	0
scalar StVehScenario_600_25.node[460].nic.mac1609_4 	TimesIntoBackoff 	21
scalar StVehScenario_600_25.node[460].nic.mac1609_4 	SlotsBackoff 	31
scalar StVehScenario_600_25.node[460].nic.mac1609_4 	NumInternalContention 	0
scalar StVehScenario_600_25.node[460].nic.mac1609_4 	totalBusyTime 	0.156333
scalar StVehScenario_600_25.node[460].veinsmobility 	startTime 	6
scalar StVehScenario_600_25.node[460].veinsmobility 	totalTime 	20
scalar StVehScenario_600_25.node[460].veinsmobility 	stopTime 	27
scalar StVehScenario_600_25.node[460].veinsmobility 	minSpeed 	3.5829967971606
scalar StVehScenario_600_25.node[460].veinsmobility 	maxSpeed 	13.893632063626
scalar StVehScenario_600_25.node[460].veinsmobility 	totalDistance 	235.33278144384
scalar StVehScenario_600_25.node[460].veinsmobility 	totalCO2Emission 	65.993269983039
scalar StVehScenario_600_25.node[288].appl 	generatedWSMs 	0
scalar StVehScenario_600_25.node[288].appl 	receivedWSMs 	0
scalar StVehScenario_600_25.node[288].appl 	generatedBSMs 	27
scalar StVehScenario_600_25.node[288].appl 	receivedBSMs 	2175
scalar StVehScenario_600_25.node[288].appl 	generatedWSAs 	0
scalar StVehScenario_600_25.node[288].appl 	receivedWSAs 	0
scalar StVehScenario_600_25.node[288].appl 	rmseSUMGPS 	42.734789871518
scalar StVehScenario_600_25.node[288].appl 	rmseSUMCP 	0
scalar StVehScenario_600_25.node[288].appl 	delaySum 	0
scalar StVehScenario_600_25.node[288].nic.phy80211p 	busyTime 	0.0085588148148147
scalar StVehScenario_600_25.node[288].nic.mac1609_4 	ReceivedUnicastPackets 	0
scalar StVehScenario_600_25.node[288].nic.mac1609_4 	ReceivedBroadcasts 	2175
scalar StVehScenario_600_25.node[288].nic.mac1609_4 	SentPackets 	27
scalar StVehScenario_600_25.node[288].nic.mac1609_4 	SNIRLostPackets 	47
scalar StVehScenario_600_25.node[288].nic.mac1609_4 	RXTXLostPackets 	0
scalar StVehScenario_600_25.node[288].nic.mac1609_4 	TotalLostPackets 	47
scalar StVehScenario_600_25.node[288].nic.mac1609_4 	DroppedPacketsInMac 	0
scalar StVehScenario_600_25.node[288].nic.mac1609_4 	TooLittleTime 	0
scalar StVehScenario_600_25.node[288].nic.mac1609_4 	TimesIntoBackoff 	27
scalar StVehScenario_600_25.node[288].nic.mac1609_4 	SlotsBackoff 	46
scalar StVehScenario_600_25.node[288].nic.mac1609_4 	NumInternalContention 	0
scalar StVehScenario_600_25.node[288].nic.mac1609_4 	totalBusyTime 	0.232883
scalar StVehScenario_600_25.node[288].veinsmobility 	startTime 	3
scalar StVehScenario_600_25.node[288].veinsmobility 	totalTime 	26
scalar StVehScenario_600_25.node[288].veinsmobility 	stopTime 	30
scalar StVehScenario_600_25.node[288].veinsmobility 	minSpeed 	2.8364979397079
scalar StVehScenario_600_25.node[288].veinsmobility 	maxSpeed 	13.89427584463
scalar StVehScenario_600_25.node[288].veinsmobility 	totalDistance 	313.73093186592
scalar StVehScenario_600_25.node[288].veinsmobility 	totalCO2Emission 	73.019600678861
scalar StVehScenario_600_25.node[47].appl 	generatedWSMs 	0
scalar StVehScenario_600_25.node[47].appl 	receivedWSMs 	0
scalar StVehScenario_600_25.node[47].appl 	generatedBSMs 	30
scalar StVehScenario_600_25.node[47].appl 	receivedBSMs 	1669
scalar StVehScenario_600_25.node[47].appl 	generatedWSAs 	0
scalar StVehScenario_600_25.node[47].appl 	receivedWSAs 	0
scalar StVehScenario_600_25.node[47].appl 	rmseSUMGPS 	53.354289079797
scalar StVehScenario_600_25.node[47].appl 	rmseSUMCP 	0
scalar StVehScenario_600_25.node[47].appl 	delaySum 	0
scalar StVehScenario_600_25.node[47].nic.phy80211p 	busyTime 	0.0058413333333334
scalar StVehScenario_600_25.node[47].nic.mac1609_4 	ReceivedUnicastPackets 	0
scalar StVehScenario_600_25.node[47].nic.mac1609_4 	ReceivedBroadcasts 	1669
scalar StVehScenario_600_25.node[47].nic.mac1609_4 	SentPackets 	30
scalar StVehScenario_600_25.node[47].nic.mac1609_4 	SNIRLostPackets 	16
scalar StVehScenario_600_25.node[47].nic.mac1609_4 	RXTXLostPackets 	0
scalar StVehScenario_600_25.node[47].nic.mac1609_4 	TotalLostPackets 	16
scalar StVehScenario_600_25.node[47].nic.mac1609_4 	DroppedPacketsInMac 	0
scalar StVehScenario_600_25.node[47].nic.mac1609_4 	TooLittleTime 	0
scalar StVehScenario_600_25.node[47].nic.mac1609_4 	TimesIntoBackoff 	30
scalar StVehScenario_600_25.node[47].nic.mac1609_4 	SlotsBackoff 	38
scalar StVehScenario_600_25.node[47].nic.mac1609_4 	NumInternalContention 	0
scalar StVehScenario_600_25.node[47].nic.mac1609_4 	totalBusyTime 	0.17839
scalar StVehScenario_600_25.node[47].veinsmobility 	startTime 	1
scalar StVehScenario_600_25.node[47].veinsmobility 	totalTime 	29
scalar StVehScenario_600_25.node[47].veinsmobility 	stopTime 	31
scalar StVehScenario_600_25.node[47].veinsmobility 	minSpeed 	3.7528942768363
scalar StVehScenario_600_25.node[47].veinsmobility 	maxSpeed 	13.895978500254
scalar StVehScenario_600_25.node[47].veinsmobility 	totalDistance 	364.25661082945
scalar StVehScenario_600_25.node[47].veinsmobility 	totalCO2Emission 	78.577767264762
scalar StVehScenario_600_25.node[426].appl 	generatedWSMs 	0
scalar StVehScenario_600_25.node[426].appl 	receivedWSMs 	0
scalar StVehScenario_600_25.node[426].appl 	generatedBSMs 	27
scalar StVehScenario_600_25.node[426].appl 	receivedBSMs 	1822
scalar StVehScenario_600_25.node[426].appl 	generatedWSAs 	0
scalar StVehScenario_600_25.node[426].appl 	receivedWSAs 	0
scalar StVehScenario_600_25.node[426].appl 	rmseSUMGPS 	62.966639419982
scalar StVehScenario_600_25.node[426].appl 	rmseSUMCP 	1.8625684963253e-308
scalar StVehScenario_600_25.node[426].appl 	delaySum 	2.371515100038e-322
scalar StVehScenario_600_25.node[426].nic.phy80211p 	busyTime 	0.0070989629629629
scalar StVehScenario_600_25.node[426].nic.mac1609_4 	ReceivedUnicastPackets 	0
scalar StVehScenario_600_25.node[426].nic.mac1609_4 	ReceivedBroadcasts 	1822
scalar StVehScenario_600_25.node[426].nic.mac1609_4 	SentPackets 	27
scalar StVehScenario_600_25.node[426].nic.mac1609_4 	SNIRLostPackets 	21
scalar StVehScenario_600_25.node[426].nic.mac1609_4 	RXTXLostPackets 	0
scalar StVehScenario_600_25.node[426].nic.mac1609_4 	TotalLostPackets 	21
scalar StVehScenario_600_25.node[426].nic.mac1609_4 	DroppedPacketsInMac 	0
scalar StVehScenario_600_25.node[426].nic.mac1609_4 	TooLittleTime 	0
scalar StVehScenario_600_25.node[426].nic.mac1609_4 	TimesIntoBackoff 	27
scalar StVehScenario_600_25.node[426].nic.mac1609_4 	SlotsBackoff 	45
scalar StVehScenario_600_25.node[426].nic.mac1609_4 	NumInternalContention 	0
scalar StVehScenario_600_25.node[426].nic.mac1609_4 	totalBusyTime 	0.194195
scalar StVehScenario_600_25.node[426].veinsmobility 	startTime 	5
scalar StVehScenario_600_25.node[426].veinsmobility 	totalTime 	26
scalar StVehScenario_600_25.node[426].veinsmobility 	stopTime 	32
scalar StVehScenario_600_25.node[426].veinsmobility 	minSpeed 	2.4797638304119
scalar StVehScenario_600_25.node[426].veinsmobility 	maxSpeed 	13.890980731454
scalar StVehScenario_600_25.node[426].veinsmobility 	totalDistance 	311.78217840019
scalar StVehScenario_600_25.node[426].veinsmobility 	totalCO2Emission 	73.340857720253
scalar StVehScenario_600_25.node[277].appl 	generatedWSMs 	0
scalar StVehScenario_600_25.node[277].appl 	receivedWSMs 	0
scalar StVehScenario_600_25.node[277].appl 	generatedBSMs 	30
scalar StVehScenario_600_25.node[277].appl 	receivedBSMs 	1776
scalar StVehScenario_600_25.node[277].appl 	generatedWSAs 	0
scalar StVehScenario_600_25.node[277].appl 	receivedWSAs 	0
scalar StVehScenario_600_25.node[277].appl 	rmseSUMGPS 	67.140156861226
scalar StVehScenario_600_25.node[277].appl 	rmseSUMCP 	9.4860604001519e-321
scalar StVehScenario_600_25.node[277].appl 	delaySum 	3.0737120256039e-316
scalar StVehScenario_600_25.node[277].nic.phy80211p 	busyTime 	0.0063717333333333
scalar StVehScenario_600_25.node[277].nic.mac1609_4 	ReceivedUnicastPackets 	0
scalar StVehScenario_600_25.node[277].nic.mac1609_4 	ReceivedBroadcasts 	1776
scalar StVehScenario_600_25.node[277].nic.mac1609_4 	SentPackets 	30
scalar StVehScenario_600_25.node[277].nic.mac1609_4 	SNIRLostPackets 	62
scalar StVehScenario_600_25.node[277].nic.mac1609_4 	RXTXLostPackets 	0
scalar StVehScenario_600_25.node[277].nic.mac1609_4 	TotalLostPackets 	62
scalar StVehScenario_600_25.node[277].nic.mac1609_4 	DroppedPacketsInMac 	0
scalar StVehScenario_600_25.node[277].nic.mac1609_4 	TooLittleTime 	0
scalar StVehScenario_600_25.node[277].nic.mac1609_4 	TimesIntoBackoff 	30
scalar StVehScenario_600_25.node[277].nic.mac1609_4 	SlotsBackoff 	43
scalar StVehScenario_600_25.node[277].nic.mac1609_4 	NumInternalContention 	0
scalar StVehScenario_600_25.node[277].nic.mac1609_4 	totalBusyTime 	0.19191
scalar StVehScenario_600_25.node[277].veinsmobility 	startTime 	3
scalar StVehScenario_600_25.node[277].veinsmobility 	totalTime 	29
scalar StVehScenario_600_25.node[277].veinsmobility 	stopTime 	33
scalar StVehScenario_600_25.node[277].veinsmobility 	minSpeed 	2.9956943932294
scalar StVehScenario_600_25.node[277].veinsmobility 	maxSpeed 	13.894736105492
scalar StVehScenario_600_25.node[277].veinsmobility 	totalDistance 	312.98484855269
scalar StVehScenario_600_25.node[277].veinsmobility 	totalCO2Emission 	96.550919167759
scalar StVehScenario_600_25.node[278].appl 	generatedWSMs 	0
scalar StVehScenario_600_25.node[278].appl 	receivedWSMs 	0
scalar StVehScenario_600_25.node[278].appl 	generatedBSMs 	31
scalar StVehScenario_600_25.node[278].appl 	receivedBSMs 	1592
scalar StVehScenario_600_25.node[278].appl 	generatedWSAs 	0
scalar StVehScenario_600_25.node[278].appl 	receivedWSAs 	0
scalar StVehScenario_600_25.node[278].appl 	rmseSUMGPS 	63.405331586917
scalar StVehScenario_600_25.node[278].appl 	rmseSUMCP 	2.1385040535299e-308
scalar StVehScenario_600_25.node[278].appl 	delaySum 	-nan
scalar StVehScenario_600_25.node[278].nic.phy80211p 	busyTime 	0.0054818064516129
scalar StVehScenario_600_25.node[278].nic.mac1609_4 	ReceivedUnicastPackets 	0
scalar StVehScenario_600_25.node[278].nic.mac1609_4 	ReceivedBroadcasts 	1592
scalar StVehScenario_600_25.node[278].nic.mac1609_4 	SentPackets 	31
scalar StVehScenario_600_25.node[278].nic.mac1609_4 	SNIRLostPackets 	42
scalar StVehScenario_600_25.node[278].nic.mac1609_4 	RXTXLostPackets 	0
scalar StVehScenario_600_25.node[278].nic.mac1609_4 	TotalLostPackets 	42
scalar StVehScenario_600_25.node[278].nic.mac1609_4 	DroppedPacketsInMac 	0
scalar StVehScenario_600_25.node[278].nic.mac1609_4 	TooLittleTime 	0
scalar StVehScenario_600_25.node[278].nic.mac1609_4 	TimesIntoBackoff 	31
scalar StVehScenario_600_25.node[278].nic.mac1609_4 	SlotsBackoff 	57
scalar StVehScenario_600_25.node[278].nic.mac1609_4 	NumInternalContention 	0
scalar StVehScenario_600_25.node[278].nic.mac1609_4 	totalBusyTime 	0.171527
scalar StVehScenario_600_25.node[278].veinsmobility 	startTime 	3
scalar StVehScenario_600_25.node[278].veinsmobility 	totalTime 	30
scalar StVehScenario_600_25.node[278].veinsmobility 	stopTime 	34
scalar StVehScenario_600_25.node[278].veinsmobility 	minSpeed 	2.7182677735184
scalar StVehScenario_600_25.node[278].veinsmobility 	maxSpeed 	13.893291457824
scalar StVehScenario_600_25.node[278].veinsmobility 	totalDistance 	372.34518850068
scalar StVehScenario_600_25.node[278].veinsmobility 	totalCO2Emission 	81.430031349608
scalar StVehScenario_600_25.node[191].appl 	generatedWSMs 	0
scalar StVehScenario_600_25.node[191].appl 	receivedWSMs 	0
scalar StVehScenario_600_25.node[191].appl 	generatedBSMs 	34
scalar StVehScenario_600_25.node[191].appl 	receivedBSMs 	1503
scalar StVehScenario_600_25.node[191].appl 	generatedWSAs 	0
scalar StVehScenario_600_25.node[191].appl 	receivedWSAs 	0
scalar StVehScenario_600_25.node[191].appl 	rmseSUMGPS 	67.91718687959
scalar StVehScenario_600_25.node[191].appl 	rmseSUMCP 	0
scalar StVehScenario_600_25.node[191].appl 	delaySum 	0
scalar StVehScenario_600_25.node[191].nic.phy80211p 	busyTime 	0.0046708235294118
scalar StVehScenario_600_25.node[191].nic.mac1609_4 	ReceivedUnicastPackets 	0
scalar StVehScenario_600_25.node[191].nic.mac1609_4 	ReceivedBroadcasts 	1503
scalar StVehScenario_600_25.node[191].nic.mac1609_4 	SentPackets 	34
scalar StVehScenario_600_25.node[191].nic.mac1609_4 	SNIRLostPackets 	24
scalar StVehScenario_600_25.node[191].nic.mac1609_4 	RXTXLostPackets 	0
scalar StVehScenario_600_25.node[191].nic.mac1609_4 	TotalLostPackets 	24
scalar StVehScenario_600_25.node[191].nic.mac1609_4 	DroppedPacketsInMac 	0
scalar StVehScenario_600_25.node[191].nic.mac1609_4 	TooLittleTime 	0
scalar StVehScenario_600_25.node[191].nic.mac1609_4 	TimesIntoBackoff 	34
scalar StVehScenario_600_25.node[191].nic.mac1609_4 	SlotsBackoff 	46
scalar StVehScenario_600_25.node[191].nic.mac1609_4 	NumInternalContention 	0
scalar StVehScenario_600_25.node[191].nic.mac1609_4 	totalBusyTime 	0.161546
scalar StVehScenario_600_25.node[191].veinsmobility 	startTime 	1
scalar StVehScenario_600_25.node[191].veinsmobility 	totalTime 	33
scalar StVehScenario_600_25.node[191].veinsmobility 	stopTime 	35
scalar StVehScenario_600_25.node[191].veinsmobility 	minSpeed 	3.8946583032953
scalar StVehScenario_600_25.node[191].veinsmobility 	maxSpeed 	13.898664453612
scalar StVehScenario_600_25.node[191].veinsmobility 	totalDistance 	373.04305075094
scalar StVehScenario_600_25.node[191].veinsmobility 	totalCO2Emission 	104.10111479182
scalar StVehScenario_600_25.node[410].appl 	generatedWSMs 	0
scalar StVehScenario_600_25.node[410].appl 	receivedWSMs 	0
scalar StVehScenario_600_25.node[410].appl 	generatedBSMs 	32
scalar StVehScenario_600_25.node[410].appl 	receivedBSMs 	1270
scalar StVehScenario_600_25.node[410].appl 	generatedWSAs 	0
scalar StVehScenario_600_25.node[410].appl 	receivedWSAs 	0
scalar StVehScenario_600_25.node[410].appl 	rmseSUMGPS 	72.036231011718
scalar StVehScenario_600_25.node[410].appl 	rmseSUMCP 	1.1978895888668e-314
scalar StVehScenario_600_25.node[410].appl 	delaySum 	20
scalar StVehScenario_600_25.node[410].nic.phy80211p 	busyTime 	0.0041827500000001
scalar StVehScenario_600_25.node[410].nic.mac1609_4 	ReceivedUnicastPackets 	0
scalar StVehScenario_600_25.node[410].nic.mac1609_4 	ReceivedBroadcasts 	1270
scalar StVehScenario_600_25.node[410].nic.mac1609_4 	SentPackets 	32
scalar StVehScenario_600_25.node[410].nic.mac1609_4 	SNIRLostPackets 	17
scalar StVehScenario_600_25.node[410].nic.mac1609_4 	RXTXLostPackets 	0
scalar StVehScenario_600_25.node[410].nic.mac1609_4 	TotalLostPackets 	17
scalar StVehScenario_600_25.node[410].nic.mac1609_4 	DroppedPacketsInMac 	0
scalar StVehScenario_600_25.node[410].nic.mac1609_4 	TooLittleTime 	0
scalar StVehScenario_600_25.node[410].nic.mac1609_4 	TimesIntoBackoff 	32
scalar StVehScenario_600_25.node[410].nic.mac1609_4 	SlotsBackoff 	56
scalar StVehScenario_600_25.node[410].nic.mac1609_4 	NumInternalContention 	0
scalar StVehScenario_600_25.node[410].nic.mac1609_4 	totalBusyTime 	0.137208
scalar StVehScenario_600_25.node[410].veinsmobility 	startTime 	4
scalar StVehScenario_600_25.node[410].veinsmobility 	totalTime 	31
scalar StVehScenario_600_25.node[410].veinsmobility 	stopTime 	36
scalar StVehScenario_600_25.node[410].veinsmobility 	minSpeed 	2.2904814522473
scalar StVehScenario_600_25.node[410].veinsmobility 	maxSpeed 	13.898312530459
scalar StVehScenario_600_25.node[410].veinsmobility 	totalDistance 	375.16691439679
scalar StVehScenario_600_25.node[410].veinsmobility 	totalCO2Emission 	82.607994787736
scalar StVehScenario_600_25.node[0].appl 	generatedWSMs 	0
scalar StVehScenario_600_25.node[0].appl 	receivedWSMs 	0
scalar StVehScenario_600_25.node[0].appl 	generatedBSMs 	38
scalar StVehScenario_600_25.node[0].appl 	receivedBSMs 	2705
scalar StVehScenario_600_25.node[0].appl 	generatedWSAs 	0
scalar StVehScenario_600_25.node[0].appl 	receivedWSAs 	0
scalar StVehScenario_600_25.node[0].appl 	rmseSUMGPS 	60.68049560671
scalar StVehScenario_600_25.node[0].appl 	rmseSUMCP 	1.5019595633574e-320
scalar StVehScenario_600_25.node[0].appl 	delaySum 	2.0110131846309e-316
scalar StVehScenario_600_25.node[0].nic.phy80211p 	busyTime 	0.0074754593291671
scalar StVehScenario_600_25.node[0].nic.mac1609_4 	ReceivedUnicastPackets 	0
scalar StVehScenario_600_25.node[0].nic.mac1609_4 	ReceivedBroadcasts 	2705
scalar StVehScenario_600_25.node[0].nic.mac1609_4 	SentPackets 	38
scalar StVehScenario_600_25.node[0].nic.mac1609_4 	SNIRLostPackets 	37
scalar StVehScenario_600_25.node[0].nic.mac1609_4 	RXTXLostPackets 	0
scalar StVehScenario_600_25.node[0].nic.mac1609_4 	TotalLostPackets 	37
scalar StVehScenario_600_25.node[0].nic.mac1609_4 	DroppedPacketsInMac 	0
scalar StVehScenario_600_25.node[0].nic.mac1609_4 	TooLittleTime 	0
scalar StVehScenario_600_25.node[0].nic.mac1609_4 	TimesIntoBackoff 	38
scalar StVehScenario_600_25.node[0].nic.mac1609_4 	SlotsBackoff 	54
scalar StVehScenario_600_25.node[0].nic.mac1609_4 	NumInternalContention 	0
scalar StVehScenario_600_25.node[0].nic.mac1609_4 	totalBusyTime 	0.288222
scalar StVehScenario_600_25.node[0].veinsmobility 	startTime 	1
scalar StVehScenario_600_25.node[0].veinsmobility 	totalTime 	38
scalar StVehScenario_600_25.node[0].veinsmobility 	stopTime 	39.147221119557
scalar StVehScenario_600_25.node[0].veinsmobility 	minSpeed 	0.44035862366552
scalar StVehScenario_600_25.node[0].veinsmobility 	maxSpeed 	13.71358000921
scalar StVehScenario_600_25.node[0].veinsmobility 	totalDistance 	302.28895666939
scalar StVehScenario_600_25.node[0].veinsmobility 	totalCO2Emission 	86.038551184386
scalar StVehScenario_600_25.node[1].appl 	generatedWSMs 	0
scalar StVehScenario_600_25.node[1].appl 	receivedWSMs 	0
scalar StVehScenario_600_25.node[1].appl 	generatedBSMs 	38
scalar StVehScenario_600_25.node[1].appl 	receivedBSMs 	2099
scalar StVehScenario_600_25.node[1].appl 	generatedWSAs 	0
scalar StVehScenario_600_25.node[1].appl 	receivedWSAs 	0
scalar StVehScenario_600_25.node[1].appl 	rmseSUMGPS 	85.776734553954
scalar StVehScenario_600_25.node[1].appl 	rmseSUMCP 	1.5019595633574e-320
scalar StVehScenario_600_25.node[1].appl 	delaySum 	0
scalar StVehScenario_600_25.node[1].nic.phy80211p 	busyTime 	0.0058424177032842
scalar StVehScenario_600_25.node[1].nic.mac1609_4 	ReceivedUnicastPackets 	0
scalar StVehScenario_600_25.node[1].nic.mac1609_4 	ReceivedBroadcasts 	2099
scalar StVehScenario_600_25.node[1].nic.mac1609_4 	SentPackets 	38
scalar StVehScenario_600_25.node[1].nic.mac1609_4 	SNIRLostPackets 	44
scalar StVehScenario_600_25.node[1].nic.mac1609_4 	RXTXLostPackets 	0
scalar StVehScenario_600_25.node[1].nic.mac1609_4 	TotalLostPackets 	44
scalar StVehScenario_600_25.node[1].nic.mac1609_4 	DroppedPacketsInMac 	0
scalar StVehScenario_600_25.node[1].nic.mac1609_4 	TooLittleTime 	0
scalar StVehScenario_600_25.node[1].nic.mac1609_4 	TimesIntoBackoff 	38
scalar StVehScenario_600_25.node[1].nic.mac1609_4 	SlotsBackoff 	61
scalar StVehScenario_600_25.node[1].nic.mac1609_4 	NumInternalContention 	0
scalar StVehScenario_600_25.node[1].nic.mac1609_4 	totalBusyTime 	0.225094
scalar StVehScenario_600_25.node[1].veinsmobility 	startTime 	1
scalar StVehScenario_600_25.node[1].veinsmobility 	totalTime 	38
scalar StVehScenario_600_25.node[1].veinsmobility 	stopTime 	39.147221119557
scalar StVehScenario_600_25.node[1].veinsmobility 	minSpeed 	0.44817455229408
scalar StVehScenario_600_25.node[1].veinsmobility 	maxSpeed 	13.889258433543
scalar StVehScenario_600_25.node[1].veinsmobility 	totalDistance 	375.23803835722
scalar StVehScenario_600_25.node[1].veinsmobility 	totalCO2Emission 	110.6590834012
scalar StVehScenario_600_25.node[249].appl 	generatedWSMs 	0
scalar StVehScenario_600_25.node[249].appl 	receivedWSMs 	0
scalar StVehScenario_600_25.node[249].appl 	generatedBSMs 	36
scalar StVehScenario_600_25.node[249].appl 	receivedBSMs 	2680
scalar StVehScenario_600_25.node[249].appl 	generatedWSAs 	0
scalar StVehScenario_600_25.node[249].appl 	receivedWSAs 	0
scalar StVehScenario_600_25.node[249].appl 	rmseSUMGPS 	95.732924907998
scalar StVehScenario_600_25.node[249].appl 	rmseSUMCP 	0
scalar StVehScenario_600_25.node[249].appl 	delaySum 	3.0331875755744e-316
scalar StVehScenario_600_25.node[249].nic.phy80211p 	busyTime 	0.0078085117267087
scalar StVehScenario_600_25.node[249].nic.mac1609_4 	ReceivedUnicastPackets 	0
scalar StVehScenario_600_25.node[249].nic.mac1609_4 	ReceivedBroadcasts 	2680
scalar StVehScenario_600_25.node[249].nic.mac1609_4 	SentPackets 	36
scalar StVehScenario_600_25.node[249].nic.mac1609_4 	SNIRLostPackets 	34
scalar StVehScenario_600_25.node[249].nic.mac1609_4 	RXTXLostPackets 	0
scalar StVehScenario_600_25.node[249].nic.mac1609_4 	TotalLostPackets 	34
scalar StVehScenario_600_25.node[249].nic.mac1609_4 	DroppedPacketsInMac 	0
scalar StVehScenario_600_25.node[249].nic.mac1609_4 	TooLittleTime 	0
scalar StVehScenario_600_25.node[249].nic.mac1609_4 	TimesIntoBackoff 	36
scalar StVehScenario_600_25.node[249].nic.mac1609_4 	SlotsBackoff 	61
scalar StVehScenario_600_25.node[249].nic.mac1609_4 	NumInternalContention 	0
scalar StVehScenario_600_25.node[249].nic.mac1609_4 	totalBusyTime 	0.2851
scalar StVehScenario_600_25.node[249].veinsmobility 	startTime 	3
scalar StVehScenario_600_25.node[249].veinsmobility 	totalTime 	36
scalar StVehScenario_600_25.node[249].veinsmobility 	stopTime 	39.147221119557
scalar StVehScenario_600_25.node[249].veinsmobility 	minSpeed 	0.6880201646319
scalar StVehScenario_600_25.node[249].veinsmobility 	maxSpeed 	13.772870186847
scalar StVehScenario_600_25.node[249].veinsmobility 	totalDistance 	293.95722566105
scalar StVehScenario_600_25.node[249].veinsmobility 	totalCO2Emission 	75.758700168063
scalar StVehScenario_600_25.node[2].appl 	generatedWSMs 	0
scalar StVehScenario_600_25.node[2].appl 	receivedWSMs 	0
scalar StVehScenario_600_25.node[2].appl 	generatedBSMs 	38
scalar StVehScenario_600_25.node[2].appl 	receivedBSMs 	1821
scalar StVehScenario_600_25.node[2].appl 	generatedWSAs 	0
scalar StVehScenario_600_25.node[2].appl 	receivedWSAs 	0
scalar StVehScenario_600_25.node[2].appl 	rmseSUMGPS 	75.442283901482
scalar StVehScenario_600_25.node[2].appl 	rmseSUMCP 	8.6660573552846e-315
scalar StVehScenario_600_25.node[2].appl 	delaySum 	20
scalar StVehScenario_600_25.node[2].nic.phy80211p 	busyTime 	0.0050054497915212
scalar StVehScenario_600_25.node[2].nic.mac1609_4 	ReceivedUnicastPackets 	0
scalar StVehScenario_600_25.node[2].nic.mac1609_4 	ReceivedBroadcasts 	1821
scalar StVehScenario_600_25.node[2].nic.mac1609_4 	SentPackets 	38
scalar StVehScenario_600_25.node[2].nic.mac1609_4 	SNIRLostPackets 	15
scalar StVehScenario_600_25.node[2].nic.mac1609_4 	RXTXLostPackets 	0
scalar StVehScenario_600_25.node[2].nic.mac1609_4 	TotalLostPackets 	15
scalar StVehScenario_600_25.node[2].nic.mac1609_4 	DroppedPacketsInMac 	0
scalar StVehScenario_600_25.node[2].nic.mac1609_4 	TooLittleTime 	0
scalar StVehScenario_600_25.node[2].nic.mac1609_4 	TimesIntoBackoff 	38
scalar StVehScenario_600_25.node[2].nic.mac1609_4 	SlotsBackoff 	64
scalar StVehScenario_600_25.node[2].nic.mac1609_4 	NumInternalContention 	0
scalar StVehScenario_600_25.node[2].nic.mac1609_4 	totalBusyTime 	0.194518
scalar StVehScenario_600_25.node[2].veinsmobility 	startTime 	1
scalar StVehScenario_600_25.node[2].veinsmobility 	totalTime 	38
scalar StVehScenario_600_25.node[2].veinsmobility 	stopTime 	39.147221119557
scalar StVehScenario_600_25.node[2].veinsmobility 	minSpeed 	6.7580520727896e-07
scalar StVehScenario_600_25.node[2].veinsmobility 	maxSpeed 	13.891468051742
scalar StVehScenario_600_25.node[2].veinsmobility 	totalDistance 	335.58824942455
scalar StVehScenario_600_25.node[2].veinsmobility 	totalCO2Emission 	105.74988411386
scalar StVehScenario_600_25.node[250].appl 	generatedWSMs 	0
scalar StVehScenario_600_25.node[250].appl 	receivedWSMs 	0
scalar StVehScenario_600_25.node[250].appl 	generatedBSMs 	36
scalar StVehScenario_600_25.node[250].appl 	receivedBSMs 	2814
scalar StVehScenario_600_25.node[250].appl 	generatedWSAs 	0
scalar StVehScenario_600_25.node[250].appl 	receivedWSAs 	0
scalar StVehScenario_600_25.node[250].appl 	rmseSUMGPS 	77.827318127279
scalar StVehScenario_600_25.node[250].appl 	rmseSUMCP 	5.3297355963013e-310
scalar StVehScenario_600_25.node[250].appl 	delaySum 	1.4821969375237e-323
scalar StVehScenario_600_25.node[250].nic.phy80211p 	busyTime 	0.0083062539996345
scalar StVehScenario_600_25.node[250].nic.mac1609_4 	ReceivedUnicastPackets 	0
scalar StVehScenario_600_25.node[250].nic.mac1609_4 	ReceivedBroadcasts 	2814
scalar StVehScenario_600_25.node[250].nic.mac1609_4 	SentPackets 	36
scalar StVehScenario_600_25.node[250].nic.mac1609_4 	SNIRLostPackets 	73
scalar StVehScenario_600_25.node[250].nic.mac1609_4 	RXTXLostPackets 	0
scalar StVehScenario_600_25.node[250].nic.mac1609_4 	TotalLostPackets 	73
scalar StVehScenario_600_25.node[250].nic.mac1609_4 	DroppedPacketsInMac 	0
scalar StVehScenario_600_25.node[250].nic.mac1609_4 	TooLittleTime 	0
scalar StVehScenario_600_25.node[250].nic.mac1609_4 	TimesIntoBackoff 	36
scalar StVehScenario_600_25.node[250].nic.mac1609_4 	SlotsBackoff 	47
scalar StVehScenario_600_25.node[250].nic.mac1609_4 	NumInternalContention 	0
scalar StVehScenario_600_25.node[250].nic.mac1609_4 	totalBusyTime 	0.304028
scalar StVehScenario_600_25.node[250].veinsmobility 	startTime 	3
scalar StVehScenario_600_25.node[250].veinsmobility 	totalTime 	36
scalar StVehScenario_600_25.node[250].veinsmobility 	stopTime 	39.147221119557
scalar StVehScenario_600_25.node[250].veinsmobility 	minSpeed 	0
scalar StVehScenario_600_25.node[250].veinsmobility 	maxSpeed 	13.895587896344
scalar StVehScenario_600_25.node[250].veinsmobility 	totalDistance 	249.08038763715
scalar StVehScenario_600_25.node[250].veinsmobility 	totalCO2Emission 	74.565632328843
scalar StVehScenario_600_25.node[251].appl 	generatedWSMs 	0
scalar StVehScenario_600_25.node[251].appl 	receivedWSMs 	0
scalar StVehScenario_600_25.node[251].appl 	generatedBSMs 	36
scalar StVehScenario_600_25.node[251].appl 	receivedBSMs 	2680
scalar StVehScenario_600_25.node[251].appl 	generatedWSAs 	0
scalar StVehScenario_600_25.node[251].appl 	receivedWSAs 	0
scalar StVehScenario_600_25.node[251].appl 	rmseSUMGPS 	77.852806209805
scalar StVehScenario_600_25.node[251].appl 	rmseSUMCP 	1.1105361265851e-314
scalar StVehScenario_600_25.node[251].appl 	delaySum 	2.371515100038e-322
scalar StVehScenario_600_25.node[251].nic.phy80211p 	busyTime 	0.007825774464498
scalar StVehScenario_600_25.node[251].nic.mac1609_4 	ReceivedUnicastPackets 	0
scalar StVehScenario_600_25.node[251].nic.mac1609_4 	ReceivedBroadcasts 	2680
scalar StVehScenario_600_25.node[251].nic.mac1609_4 	SentPackets 	36
scalar StVehScenario_600_25.node[251].nic.mac1609_4 	SNIRLostPackets 	40
scalar StVehScenario_600_25.node[251].nic.mac1609_4 	RXTXLostPackets 	0
scalar StVehScenario_600_25.node[251].nic.mac1609_4 	TotalLostPackets 	40
scalar StVehScenario_600_25.node[251].nic.mac1609_4 	DroppedPacketsInMac 	0
scalar StVehScenario_600_25.node[251].nic.mac1609_4 	TooLittleTime 	0
scalar StVehScenario_600_25.node[251].nic.mac1609_4 	TimesIntoBackoff 	36
scalar StVehScenario_600_25.node[251].nic.mac1609_4 	SlotsBackoff 	46
scalar StVehScenario_600_25.node[251].nic.mac1609_4 	NumInternalContention 	0
scalar StVehScenario_600_25.node[251].nic.mac1609_4 	totalBusyTime 	0.286036
scalar StVehScenario_600_25.node[251].veinsmobility 	startTime 	3
scalar StVehScenario_600_25.node[251].veinsmobility 	totalTime 	36
scalar StVehScenario_600_25.node[251].veinsmobility 	stopTime 	39.147221119557
scalar StVehScenario_600_25.node[251].veinsmobility 	minSpeed 	1.4188916957547e-05
scalar StVehScenario_600_25.node[251].veinsmobility 	maxSpeed 	13.895147632237
scalar StVehScenario_600_25.node[251].veinsmobility 	totalDistance 	334.55368037544
scalar StVehScenario_600_25.node[251].veinsmobility 	totalCO2Emission 	92.172058342842
scalar StVehScenario_600_25.node[430].appl 	generatedWSMs 	0
scalar StVehScenario_600_25.node[430].appl 	receivedWSMs 	0
scalar StVehScenario_600_25.node[430].appl 	generatedBSMs 	33
scalar StVehScenario_600_25.node[430].appl 	receivedBSMs 	2873
scalar StVehScenario_600_25.node[430].appl 	generatedWSAs 	0
scalar StVehScenario_600_25.node[430].appl 	receivedWSAs 	0
scalar StVehScenario_600_25.node[430].appl 	rmseSUMGPS 	68.595278401027
scalar StVehScenario_600_25.node[430].appl 	rmseSUMCP 	0
scalar StVehScenario_600_25.node[430].appl 	delaySum 	20
scalar StVehScenario_600_25.node[430].nic.phy80211p 	busyTime 	0.0091960650004577
scalar StVehScenario_600_25.node[430].nic.mac1609_4 	ReceivedUnicastPackets 	0
scalar StVehScenario_600_25.node[430].nic.mac1609_4 	ReceivedBroadcasts 	2873
scalar StVehScenario_600_25.node[430].nic.mac1609_4 	SentPackets 	33
scalar StVehScenario_600_25.node[430].nic.mac1609_4 	SNIRLostPackets 	58
scalar StVehScenario_600_25.node[430].nic.mac1609_4 	RXTXLostPackets 	0
scalar StVehScenario_600_25.node[430].nic.mac1609_4 	TotalLostPackets 	58
scalar StVehScenario_600_25.node[430].nic.mac1609_4 	DroppedPacketsInMac 	0
scalar StVehScenario_600_25.node[430].nic.mac1609_4 	TooLittleTime 	0
scalar StVehScenario_600_25.node[430].nic.mac1609_4 	TimesIntoBackoff 	33
scalar StVehScenario_600_25.node[430].nic.mac1609_4 	SlotsBackoff 	37
scalar StVehScenario_600_25.node[430].nic.mac1609_4 	NumInternalContention 	0
scalar StVehScenario_600_25.node[430].nic.mac1609_4 	totalBusyTime 	0.306937
scalar StVehScenario_600_25.node[430].veinsmobility 	startTime 	6
scalar StVehScenario_600_25.node[430].veinsmobility 	totalTime 	33
scalar StVehScenario_600_25.node[430].veinsmobility 	stopTime 	39.147221119557
scalar StVehScenario_600_25.node[430].veinsmobility 	minSpeed 	0
scalar StVehScenario_600_25.node[430].veinsmobility 	maxSpeed 	13.89905588744
scalar StVehScenario_600_25.node[430].veinsmobility 	totalDistance 	248.03227553582
scalar StVehScenario_600_25.node[430].veinsmobility 	totalCO2Emission 	70.916384078427
scalar StVehScenario_600_25.node[3].appl 	generatedWSMs 	0
scalar StVehScenario_600_25.node[3].appl 	receivedWSMs 	0
scalar StVehScenario_600_25.node[3].appl 	generatedBSMs 	38
scalar StVehScenario_600_25.node[3].appl 	receivedBSMs 	2632
scalar StVehScenario_600_25.node[3].appl 	generatedWSAs 	0
scalar StVehScenario_600_25.node[3].appl 	receivedWSAs 	0
scalar StVehScenario_600_25.node[3].appl 	rmseSUMGPS 	79.509528704946
scalar StVehScenario_600_25.node[3].appl 	rmseSUMCP 	2.6213926985471e-308
scalar StVehScenario_600_25.node[3].appl 	delaySum 	2.2550665940808e-316
scalar StVehScenario_600_25.node[3].nic.phy80211p 	busyTime 	0.0074073023330952
scalar StVehScenario_600_25.node[3].nic.mac1609_4 	ReceivedUnicastPackets 	0
scalar StVehScenario_600_25.node[3].nic.mac1609_4 	ReceivedBroadcasts 	2632
scalar StVehScenario_600_25.node[3].nic.mac1609_4 	SentPackets 	38
scalar StVehScenario_600_25.node[3].nic.mac1609_4 	SNIRLostPackets 	85
scalar StVehScenario_600_25.node[3].nic.mac1609_4 	RXTXLostPackets 	9
scalar StVehScenario_600_25.node[3].nic.mac1609_4 	TotalLostPackets 	94
scalar StVehScenario_600_25.node[3].nic.mac1609_4 	DroppedPacketsInMac 	0
scalar StVehScenario_600_25.node[3].nic.mac1609_4 	TooLittleTime 	0
scalar StVehScenario_600_25.node[3].nic.mac1609_4 	TimesIntoBackoff 	44
scalar StVehScenario_600_25.node[3].nic.mac1609_4 	SlotsBackoff 	62
scalar StVehScenario_600_25.node[3].nic.mac1609_4 	NumInternalContention 	0
scalar StVehScenario_600_25.node[3].nic.mac1609_4 	totalBusyTime 	0.28323
scalar StVehScenario_600_25.node[3].veinsmobility 	startTime 	1
scalar StVehScenario_600_25.node[3].veinsmobility 	totalTime 	38
scalar StVehScenario_600_25.node[3].veinsmobility 	stopTime 	39.147221119557
scalar StVehScenario_600_25.node[3].veinsmobility 	minSpeed 	0.48836401127055
scalar StVehScenario_600_25.node[3].veinsmobility 	maxSpeed 	13.881809481278
scalar StVehScenario_600_25.node[3].veinsmobility 	totalDistance 	391.22768428447
scalar StVehScenario_600_25.node[3].veinsmobility 	totalCO2Emission 	112.31976195749
scalar StVehScenario_600_25.node[252].appl 	generatedWSMs 	0
scalar StVehScenario_600_25.node[252].appl 	receivedWSMs 	0
scalar StVehScenario_600_25.node[252].appl 	generatedBSMs 	37
scalar StVehScenario_600_25.node[252].appl 	receivedBSMs 	1840
scalar StVehScenario_600_25.node[252].appl 	generatedWSAs 	0
scalar StVehScenario_600_25.node[252].appl 	receivedWSAs 	0
scalar StVehScenario_600_25.node[252].appl 	rmseSUMGPS 	89.18016746833
scalar StVehScenario_600_25.node[252].appl 	rmseSUMCP 	1.8737439618529e-319
scalar StVehScenario_600_25.node[252].appl 	delaySum 	0
scalar StVehScenario_600_25.node[252].nic.phy80211p 	busyTime 	0.0053284317309745
scalar StVehScenario_600_25.node[252].nic.mac1609_4 	ReceivedUnicastPackets 	0
scalar StVehScenario_600_25.node[252].nic.mac1609_4 	ReceivedBroadcasts 	1840
scalar StVehScenario_600_25.node[252].nic.mac1609_4 	SentPackets 	37
scalar StVehScenario_600_25.node[252].nic.mac1609_4 	SNIRLostPackets 	12
scalar StVehScenario_600_25.node[252].nic.mac1609_4 	RXTXLostPackets 	0
scalar StVehScenario_600_25.node[252].nic.mac1609_4 	TotalLostPackets 	12
scalar StVehScenario_600_25.node[252].nic.mac1609_4 	DroppedPacketsInMac 	0
scalar StVehScenario_600_25.node[252].nic.mac1609_4 	TooLittleTime 	0
scalar StVehScenario_600_25.node[252].nic.mac1609_4 	TimesIntoBackoff 	37
scalar StVehScenario_600_25.node[252].nic.mac1609_4 	SlotsBackoff 	44
scalar StVehScenario_600_25.node[252].nic.mac1609_4 	NumInternalContention 	0
scalar StVehScenario_600_25.node[252].nic.mac1609_4 	totalBusyTime 	0.196181
scalar StVehScenario_600_25.node[252].veinsmobility 	startTime 	3
scalar StVehScenario_600_25.node[252].veinsmobility 	totalTime 	36
scalar StVehScenario_600_25.node[252].veinsmobility 	stopTime 	39.147221119557
scalar StVehScenario_600_25.node[252].veinsmobility 	minSpeed 	2.9929297375584
scalar StVehScenario_600_25.node[252].veinsmobility 	maxSpeed 	13.887733451165
scalar StVehScenario_600_25.node[252].veinsmobility 	totalDistance 	402.79456819022
scalar StVehScenario_600_25.node[252].veinsmobility 	totalCO2Emission 	109.60675518397
scalar StVehScenario_600_25.node[4].appl 	generatedWSMs 	0
scalar StVehScenario_600_25.node[4].appl 	receivedWSMs 	0
scalar StVehScenario_600_25.node[4].appl 	generatedBSMs 	38
scalar StVehScenario_600_25.node[4].appl 	receivedBSMs 	2485
scalar StVehScenario_600_25.node[4].appl 	generatedWSAs 	0
scalar StVehScenario_600_25.node[4].appl 	receivedWSAs 	0
scalar StVehScenario_600_25.node[4].appl 	rmseSUMGPS 	86.297352431433
scalar StVehScenario_600_25.node[4].appl 	rmseSUMCP 	8.5899650798858e-315
scalar StVehScenario_600_25.node[4].appl 	delaySum 	7.1639518646981e-322
scalar StVehScenario_600_25.node[4].nic.phy80211p 	busyTime 	0.0068456886854627
scalar StVehScenario_600_25.node[4].nic.mac1609_4 	ReceivedUnicastPackets 	0
scalar StVehScenario_600_25.node[4].nic.mac1609_4 	ReceivedBroadcasts 	2485
scalar StVehScenario_600_25.node[4].nic.mac1609_4 	SentPackets 	38
scalar StVehScenario_600_25.node[4].nic.mac1609_4 	SNIRLostPackets 	26
scalar StVehScenario_600_25.node[4].nic.mac1609_4 	RXTXLostPackets 	0
scalar StVehScenario_600_25.node[4].nic.mac1609_4 	TotalLostPackets 	26
scalar StVehScenario_600_25.node[4].nic.mac1609_4 	DroppedPacketsInMac 	0
scalar StVehScenario_600_25.node[4].nic.mac1609_4 	TooLittleTime 	0
scalar StVehScenario_600_25.node[4].nic.mac1609_4 	TimesIntoBackoff 	38
scalar StVehScenario_600_25.node[4].nic.mac1609_4 	SlotsBackoff 	68
scalar StVehScenario_600_25.node[4].nic.mac1609_4 	NumInternalContention 	0
scalar StVehScenario_600_25.node[4].nic.mac1609_4 	totalBusyTime 	0.26503
scalar StVehScenario_600_25.node[4].veinsmobility 	startTime 	1
scalar StVehScenario_600_25.node[4].veinsmobility 	totalTime 	38
scalar StVehScenario_600_25.node[4].veinsmobility 	stopTime 	39.147221119557
scalar StVehScenario_600_25.node[4].veinsmobility 	minSpeed 	4.5773234563981e-14
scalar StVehScenario_600_25.node[4].veinsmobility 	maxSpeed 	13.897376361126
scalar StVehScenario_600_25.node[4].veinsmobility 	totalDistance 	320.65880546
scalar StVehScenario_600_25.node[4].veinsmobility 	totalCO2Emission 	98.12128952022
scalar StVehScenario_600_25.node[5].appl 	generatedWSMs 	0
scalar StVehScenario_600_25.node[5].appl 	receivedWSMs 	0
scalar StVehScenario_600_25.node[5].appl 	generatedBSMs 	38
scalar StVehScenario_600_25.node[5].appl 	receivedBSMs 	1743
scalar StVehScenario_600_25.node[5].appl 	generatedWSAs 	0
scalar StVehScenario_600_25.node[5].appl 	receivedWSAs 	0
scalar StVehScenario_600_25.node[5].appl 	rmseSUMGPS 	79.733709118832
scalar StVehScenario_600_25.node[5].appl 	rmseSUMCP 	8.5632542310111e-315
scalar StVehScenario_600_25.node[5].appl 	delaySum 	3.0879102865078e-321
scalar StVehScenario_600_25.node[5].nic.phy80211p 	busyTime 	0.0047600846056623
scalar StVehScenario_600_25.node[5].nic.mac1609_4 	ReceivedUnicastPackets 	0
scalar StVehScenario_600_25.node[5].nic.mac1609_4 	ReceivedBroadcasts 	1743
scalar StVehScenario_600_25.node[5].nic.mac1609_4 	SentPackets 	38
scalar StVehScenario_600_25.node[5].nic.mac1609_4 	SNIRLostPackets 	3
scalar StVehScenario_600_25.node[5].nic.mac1609_4 	RXTXLostPackets 	0
scalar StVehScenario_600_25.node[5].nic.mac1609_4 	TotalLostPackets 	3
scalar StVehScenario_600_25.node[5].nic.mac1609_4 	DroppedPacketsInMac 	0
scalar StVehScenario_600_25.node[5].nic.mac1609_4 	TooLittleTime 	0
scalar StVehScenario_600_25.node[5].nic.mac1609_4 	TimesIntoBackoff 	38
scalar StVehScenario_600_25.node[5].nic.mac1609_4 	SlotsBackoff 	55
scalar StVehScenario_600_25.node[5].nic.mac1609_4 	NumInternalContention 	0
scalar StVehScenario_600_25.node[5].nic.mac1609_4 	totalBusyTime 	0.185574
scalar StVehScenario_600_25.node[5].veinsmobility 	startTime 	1
scalar StVehScenario_600_25.node[5].veinsmobility 	totalTime 	38
scalar StVehScenario_600_25.node[5].veinsmobility 	stopTime 	39.147221119557
scalar StVehScenario_600_25.node[5].veinsmobility 	minSpeed 	1.7495901131003
scalar StVehScenario_600_25.node[5].veinsmobility 	maxSpeed 	13.894779369398
scalar StVehScenario_600_25.node[5].veinsmobility 	totalDistance 	456.75857197887
scalar StVehScenario_600_25.node[5].veinsmobility 	totalCO2Emission 	91.735985502425
scalar StVehScenario_600_25.node[223].appl 	generatedWSMs 	0
scalar StVehScenario_600_25.node[223].appl 	receivedWSMs 	0
scalar StVehScenario_600_25.node[223].appl 	generatedBSMs 	37
scalar StVehScenario_600_25.node[223].appl 	receivedBSMs 	2911
scalar StVehScenario_600_25.node[223].appl 	generatedWSAs 	0
scalar StVehScenario_600_25.node[223].appl 	receivedWSAs 	0
scalar StVehScenario_600_25.node[223].appl 	rmseSUMGPS 	99.060981821307
scalar StVehScenario_600_25.node[223].appl 	rmseSUMCP 	1.086490418e-314
scalar StVehScenario_600_25.node[223].appl 	delaySum 	2.9699930221987e-316
scalar StVehScenario_600_25.node[223].nic.phy80211p 	busyTime 	0.0081946371983052
scalar StVehScenario_600_25.node[223].nic.mac1609_4 	ReceivedUnicastPackets 	0
scalar StVehScenario_600_25.node[223].nic.mac1609_4 	ReceivedBroadcasts 	2911
scalar StVehScenario_600_25.node[223].nic.mac1609_4 	SentPackets 	37
scalar StVehScenario_600_25.node[223].nic.mac1609_4 	SNIRLostPackets 	16
scalar StVehScenario_600_25.node[223].nic.mac1609_4 	RXTXLostPackets 	0
scalar StVehScenario_600_25.node[223].nic.mac1609_4 	TotalLostPackets 	16
scalar StVehScenario_600_25.node[223].nic.mac1609_4 	DroppedPacketsInMac 	0
scalar StVehScenario_600_25.node[223].nic.mac1609_4 	TooLittleTime 	0
scalar StVehScenario_600_25.node[223].nic.mac1609_4 	TimesIntoBackoff 	37
scalar StVehScenario_600_25.node[223].nic.mac1609_4 	SlotsBackoff 	59
scalar StVehScenario_600_25.node[223].nic.mac1609_4 	NumInternalContention 	0
scalar StVehScenario_600_25.node[223].nic.mac1609_4 	totalBusyTime 	0.308293
scalar StVehScenario_600_25.node[223].veinsmobility 	startTime 	2
scalar StVehScenario_600_25.node[223].veinsmobility 	totalTime 	37
scalar StVehScenario_600_25.node[223].veinsmobility 	stopTime 	39.147221119557
scalar StVehScenario_600_25.node[223].veinsmobility 	minSpeed 	4.0393966335585
scalar StVehScenario_600_25.node[223].veinsmobility 	maxSpeed 	13.897618630002
scalar StVehScenario_600_25.node[223].veinsmobility 	totalDistance 	466.05518074901
scalar StVehScenario_600_25.node[223].veinsmobility 	totalCO2Emission 	91.492514160743
scalar StVehScenario_600_25.node[6].appl 	generatedWSMs 	0
scalar StVehScenario_600_25.node[6].appl 	receivedWSMs 	0
scalar StVehScenario_600_25.node[6].appl 	generatedBSMs 	38
scalar StVehScenario_600_25.node[6].appl 	receivedBSMs 	1880
scalar StVehScenario_600_25.node[6].appl 	generatedWSAs 	0
scalar StVehScenario_600_25.node[6].appl 	receivedWSAs 	0
scalar StVehScenario_600_25.node[6].appl 	rmseSUMGPS 	93.049939101162
scalar StVehScenario_600_25.node[6].appl 	rmseSUMCP 	2.5251695158946e-319
scalar StVehScenario_600_25.node[6].appl 	delaySum 	5.7756273998842e-321
scalar StVehScenario_600_25.node[6].nic.phy80211p 	busyTime 	0.0051553951828794
scalar StVehScenario_600_25.node[6].nic.mac1609_4 	ReceivedUnicastPackets 	0
scalar StVehScenario_600_25.node[6].nic.mac1609_4 	ReceivedBroadcasts 	1880
scalar StVehScenario_600_25.node[6].nic.mac1609_4 	SentPackets 	38
scalar StVehScenario_600_25.node[6].nic.mac1609_4 	SNIRLostPackets 	11
scalar StVehScenario_600_25.node[6].nic.mac1609_4 	RXTXLostPackets 	0
scalar StVehScenario_600_25.node[6].nic.mac1609_4 	TotalLostPackets 	11
scalar StVehScenario_600_25.node[6].nic.mac1609_4 	DroppedPacketsInMac 	0
scalar StVehScenario_600_25.node[6].nic.mac1609_4 	TooLittleTime 	0
scalar StVehScenario_600_25.node[6].nic.mac1609_4 	TimesIntoBackoff 	38
scalar StVehScenario_600_25.node[6].nic.mac1609_4 	SlotsBackoff 	58
scalar StVehScenario_600_25.node[6].nic.mac1609_4 	NumInternalContention 	0
scalar StVehScenario_600_25.node[6].nic.mac1609_4 	totalBusyTime 	0.200654
scalar StVehScenario_600_25.node[6].veinsmobility 	startTime 	1
scalar StVehScenario_600_25.node[6].veinsmobility 	totalTime 	38
scalar StVehScenario_600_25.node[6].veinsmobility 	stopTime 	39.147221119557
scalar StVehScenario_600_25.node[6].veinsmobility 	minSpeed 	7.8846520540662e-08
scalar StVehScenario_600_25.node[6].veinsmobility 	maxSpeed 	13.862966145139
scalar StVehScenario_600_25.node[6].veinsmobility 	totalDistance 	313.40254389573
scalar StVehScenario_600_25.node[6].veinsmobility 	totalCO2Emission 	95.761823812038
scalar StVehScenario_600_25.node[7].appl 	generatedWSMs 	0
scalar StVehScenario_600_25.node[7].appl 	receivedWSMs 	0
scalar StVehScenario_600_25.node[7].appl 	generatedBSMs 	38
scalar StVehScenario_600_25.node[7].appl 	receivedBSMs 	1788
scalar StVehScenario_600_25.node[7].appl 	generatedWSAs 	0
scalar StVehScenario_600_25.node[7].appl 	receivedWSAs 	0
scalar StVehScenario_600_25.node[7].appl 	rmseSUMGPS 	76.686855570356
scalar StVehScenario_600_25.node[7].appl 	rmseSUMCP 	2.0930069358309e-316
scalar StVehScenario_600_25.node[7].appl 	delaySum 	5.9895578245334e-320
scalar StVehScenario_600_25.node[7].nic.phy80211p 	busyTime 	0.0049073037171777
scalar StVehScenario_600_25.node[7].nic.mac1609_4 	ReceivedUnicastPackets 	0
scalar StVehScenario_600_25.node[7].nic.mac1609_4 	ReceivedBroadcasts 	1788
scalar StVehScenario_600_25.node[7].nic.mac1609_4 	SentPackets 	38
scalar StVehScenario_600_25.node[7].nic.mac1609_4 	SNIRLostPackets 	12
scalar StVehScenario_600_25.node[7].nic.mac1609_4 	RXTXLostPackets 	0
scalar StVehScenario_600_25.node[7].nic.mac1609_4 	TotalLostPackets 	12
scalar StVehScenario_600_25.node[7].nic.mac1609_4 	DroppedPacketsInMac 	0
scalar StVehScenario_600_25.node[7].nic.mac1609_4 	TooLittleTime 	0
scalar StVehScenario_600_25.node[7].nic.mac1609_4 	TimesIntoBackoff 	38
scalar StVehScenario_600_25.node[7].nic.mac1609_4 	SlotsBackoff 	51
scalar StVehScenario_600_25.node[7].nic.mac1609_4 	NumInternalContention 	0
scalar StVehScenario_600_25.node[7].nic.mac1609_4 	totalBusyTime 	0.190358
scalar StVehScenario_600_25.node[7].veinsmobility 	startTime 	1
scalar StVehScenario_600_25.node[7].veinsmobility 	totalTime 	38
scalar StVehScenario_600_25.node[7].veinsmobility 	stopTime 	39.147221119557
scalar StVehScenario_600_25.node[7].veinsmobility 	minSpeed 	0.44878488468064
scalar StVehScenario_600_25.node[7].veinsmobility 	maxSpeed 	13.891204212962
scalar StVehScenario_600_25.node[7].veinsmobility 	totalDistance 	387.89378520926
scalar StVehScenario_600_25.node[7].veinsmobility 	totalCO2Emission 	90.893855301782
scalar StVehScenario_600_25.node[8].appl 	generatedWSMs 	0
scalar StVehScenario_600_25.node[8].appl 	receivedWSMs 	0
scalar StVehScenario_600_25.node[8].appl 	generatedBSMs 	38
scalar StVehScenario_600_25.node[8].appl 	receivedBSMs 	2051
scalar StVehScenario_600_25.node[8].appl 	generatedWSAs 	0
scalar StVehScenario_600_25.node[8].appl 	receivedWSAs 	0
scalar StVehScenario_600_25.node[8].appl 	rmseSUMGPS 	83.720931625805
scalar StVehScenario_600_25.node[8].appl 	rmseSUMCP 	8.5173002762106e-315
scalar StVehScenario_600_25.node[8].appl 	delaySum 	7.1639518646981e-322
scalar StVehScenario_600_25.node[8].nic.phy80211p 	busyTime 	0.0056461255545971
scalar StVehScenario_600_25.node[8].nic.mac1609_4 	ReceivedUnicastPackets 	0
scalar StVehScenario_600_25.node[8].nic.mac1609_4 	ReceivedBroadcasts 	2051
scalar StVehScenario_600_25.node[8].nic.mac1609_4 	SentPackets 	38
scalar StVehScenario_600_25.node[8].nic.mac1609_4 	SNIRLostPackets 	20
scalar StVehScenario_600_25.node[8].nic.mac1609_4 	RXTXLostPackets 	0
scalar StVehScenario_600_25.node[8].nic.mac1609_4 	TotalLostPackets 	20
scalar StVehScenario_600_25.node[8].nic.mac1609_4 	DroppedPacketsInMac 	0
scalar StVehScenario_600_25.node[8].nic.mac1609_4 	TooLittleTime 	0
scalar StVehScenario_600_25.node[8].nic.mac1609_4 	TimesIntoBackoff 	38
scalar StVehScenario_600_25.node[8].nic.mac1609_4 	SlotsBackoff 	48
scalar StVehScenario_600_25.node[8].nic.mac1609_4 	NumInternalContention 	0
scalar StVehScenario_600_25.node[8].nic.mac1609_4 	totalBusyTime 	0.219374
scalar StVehScenario_600_25.node[8].veinsmobility 	startTime 	1
scalar StVehScenario_600_25.node[8].veinsmobility 	totalTime 	38
scalar StVehScenario_600_25.node[8].veinsmobility 	stopTime 	39.147221119557
scalar StVehScenario_600_25.node[8].veinsmobility 	minSpeed 	0
scalar StVehScenario_600_25.node[8].veinsmobility 	maxSpeed 	13.895909550604
scalar StVehScenario_600_25.node[8].veinsmobility 	totalDistance 	251.74873569476
scalar StVehScenario_600_25.node[8].veinsmobility 	totalCO2Emission 	78.396278564704
scalar StVehScenario_600_25.node[9].appl 	generatedWSMs 	0
scalar StVehScenario_600_25.node[9].appl 	receivedWSMs 	0
scalar StVehScenario_600_25.node[9].appl 	generatedBSMs 	39
scalar StVehScenario_600_25.node[9].appl 	receivedBSMs 	1630
scalar StVehScenario_600_25.node[9].appl 	generatedWSAs 	0
scalar StVehScenario_600_25.node[9].appl 	receivedWSAs 	0
scalar StVehScenario_600_25.node[9].appl 	rmseSUMGPS 	86.31014129275
scalar StVehScenario_600_25.node[9].appl 	rmseSUMCP 	2.4856442642273e-320
scalar StVehScenario_600_25.node[9].appl 	delaySum 	2.2811615604841e-316
scalar StVehScenario_600_25.node[9].nic.phy80211p 	busyTime 	0.0044438361438887
scalar StVehScenario_600_25.node[9].nic.mac1609_4 	ReceivedUnicastPackets 	0
scalar StVehScenario_600_25.node[9].nic.mac1609_4 	ReceivedBroadcasts 	1630
scalar StVehScenario_600_25.node[9].nic.mac1609_4 	SentPackets 	39
scalar StVehScenario_600_25.node[9].nic.mac1609_4 	SNIRLostPackets 	0
scalar StVehScenario_600_25.node[9].nic.mac1609_4 	RXTXLostPackets 	0
scalar StVehScenario_600_25.node[9].nic.mac1609_4 	TotalLostPackets 	0
scalar StVehScenario_600_25.node[9].nic.mac1609_4 	DroppedPacketsInMac 	0
scalar StVehScenario_600_25.node[9].nic.mac1609_4 	TooLittleTime 	0
scalar StVehScenario_600_25.node[9].nic.mac1609_4 	TimesIntoBackoff 	39
scalar StVehScenario_600_25.node[9].nic.mac1609_4 	SlotsBackoff 	58
scalar StVehScenario_600_25.node[9].nic.mac1609_4 	NumInternalContention 	0
scalar StVehScenario_600_25.node[9].nic.mac1609_4 	totalBusyTime 	0.173615
scalar StVehScenario_600_25.node[9].veinsmobility 	startTime 	1
scalar StVehScenario_600_25.node[9].veinsmobility 	totalTime 	38
scalar StVehScenario_600_25.node[9].veinsmobility 	stopTime 	39.147221119557
scalar StVehScenario_600_25.node[9].veinsmobility 	minSpeed 	0
scalar StVehScenario_600_25.node[9].veinsmobility 	maxSpeed 	13.877160031863
scalar StVehScenario_600_25.node[9].veinsmobility 	totalDistance 	247.5822497692
scalar StVehScenario_600_25.node[9].veinsmobility 	totalCO2Emission 	75.491490116125
scalar StVehScenario_600_25.node[10].appl 	generatedWSMs 	0
scalar StVehScenario_600_25.node[10].appl 	receivedWSMs 	0
scalar StVehScenario_600_25.node[10].appl 	generatedBSMs 	38
scalar StVehScenario_600_25.node[10].appl 	receivedBSMs 	2993
scalar StVehScenario_600_25.node[10].appl 	generatedWSAs 	0
scalar StVehScenario_600_25.node[10].appl 	receivedWSAs 	0
scalar StVehScenario_600_25.node[10].appl 	rmseSUMGPS 	106.84531749352
scalar StVehScenario_600_25.node[10].appl 	rmseSUMCP 	0
scalar StVehScenario_600_25.node[10].appl 	delaySum 	2.2610538792034e-316
scalar StVehScenario_600_25.node[10].nic.phy80211p 	busyTime 	0.0084732777516598
scalar StVehScenario_600_25.node[10].nic.mac1609_4 	ReceivedUnicastPackets 	0
scalar StVehScenario_600_25.node[10].nic.mac1609_4 	ReceivedBroadcasts 	2993
scalar StVehScenario_600_25.node[10].nic.mac1609_4 	SentPackets 	38
scalar StVehScenario_600_25.node[10].nic.mac1609_4 	SNIRLostPackets 	115
scalar StVehScenario_600_25.node[10].nic.mac1609_4 	RXTXLostPackets 	0
scalar StVehScenario_600_25.node[10].nic.mac1609_4 	TotalLostPackets 	115
scalar StVehScenario_600_25.node[10].nic.mac1609_4 	DroppedPacketsInMac 	0
scalar StVehScenario_600_25.node[10].nic.mac1609_4 	TooLittleTime 	0
scalar StVehScenario_600_25.node[10].nic.mac1609_4 	TimesIntoBackoff 	38
scalar StVehScenario_600_25.node[10].nic.mac1609_4 	SlotsBackoff 	64
scalar StVehScenario_600_25.node[10].nic.mac1609_4 	NumInternalContention 	0
scalar StVehScenario_600_25.node[10].nic.mac1609_4 	totalBusyTime 	0.322542
scalar StVehScenario_600_25.node[10].veinsmobility 	startTime 	1
scalar StVehScenario_600_25.node[10].veinsmobility 	totalTime 	38
scalar StVehScenario_600_25.node[10].veinsmobility 	stopTime 	39.147221119557
scalar StVehScenario_600_25.node[10].veinsmobility 	minSpeed 	0
scalar StVehScenario_600_25.node[10].veinsmobility 	maxSpeed 	13.884811239336
scalar StVehScenario_600_25.node[10].veinsmobility 	totalDistance 	248.18101005918
scalar StVehScenario_600_25.node[10].veinsmobility 	totalCO2Emission 	75.425811738775
scalar StVehScenario_600_25.node[11].appl 	generatedWSMs 	0
scalar StVehScenario_600_25.node[11].appl 	receivedWSMs 	0
scalar StVehScenario_600_25.node[11].appl 	generatedBSMs 	38
scalar StVehScenario_600_25.node[11].appl 	receivedBSMs 	1272
scalar StVehScenario_600_25.node[11].appl 	generatedWSAs 	0
scalar StVehScenario_600_25.node[11].appl 	receivedWSAs 	0
scalar StVehScenario_600_25.node[11].appl 	rmseSUMGPS 	96.914937387772
scalar StVehScenario_600_25.node[11].appl 	rmseSUMCP 	9.199502325564e-321
scalar StVehScenario_600_25.node[11].appl 	delaySum 	2.2792181038596e-316
scalar StVehScenario_600_25.node[11].nic.phy80211p 	busyTime 	0.0034760067996676
scalar StVehScenario_600_25.node[11].nic.mac1609_4 	ReceivedUnicastPackets 	0
scalar StVehScenario_600_25.node[11].nic.mac1609_4 	ReceivedBroadcasts 	1272
scalar StVehScenario_600_25.node[11].nic.mac1609_4 	SentPackets 	38
scalar StVehScenario_600_25.node[11].nic.mac1609_4 	SNIRLostPackets 	3
scalar StVehScenario_600_25.node[11].nic.mac1609_4 	RXTXLostPackets 	0
scalar StVehScenario_600_25.node[11].nic.mac1609_4 	TotalLostPackets 	3
scalar StVehScenario_600_25.node[11].nic.mac1609_4 	DroppedPacketsInMac 	0
scalar StVehScenario_600_25.node[11].nic.mac1609_4 	TooLittleTime 	0
scalar StVehScenario_600_25.node[11].nic.mac1609_4 	TimesIntoBackoff 	38
scalar StVehScenario_600_25.node[11].nic.mac1609_4 	SlotsBackoff 	59
scalar StVehScenario_600_25.node[11].nic.mac1609_4 	NumInternalContention 	0
scalar StVehScenario_600_25.node[11].nic.mac1609_4 	totalBusyTime 	0.13659
scalar StVehScenario_600_25.node[11].veinsmobility 	startTime 	1
scalar StVehScenario_600_25.node[11].veinsmobility 	totalTime 	38
scalar StVehScenario_600_25.node[11].veinsmobility 	stopTime 	39.147221119557
scalar StVehScenario_600_25.node[11].veinsmobility 	minSpeed 	3.8774494639221
scalar StVehScenario_600_25.node[11].veinsmobility 	maxSpeed 	13.897690547185
scalar StVehScenario_600_25.node[11].veinsmobility 	totalDistance 	446.00754971863
scalar StVehScenario_600_25.node[11].veinsmobility 	totalCO2Emission 	105.51593828769
scalar StVehScenario_600_25.node[253].appl 	generatedWSMs 	0
[...]
scalar StVehScenario_600_25.node[70].veinsmobility 	startTime 	1
scalar StVehScenario_600_25.node[70].veinsmobility 	totalTime 	38
scalar StVehScenario_600_25.node[70].veinsmobility 	stopTime 	39.147221119557
scalar StVehScenario_600_25.node[70].veinsmobility 	minSpeed 	4.006366809007
scalar StVehScenario_600_25.node[70].veinsmobility 	maxSpeed 	13.895385829434
scalar StVehScenario_600_25.node[70].veinsmobility 	totalDistance 	443.45352875963
scalar StVehScenario_600_25.node[70].veinsmobility 	totalCO2Emission 	114.21712071774
scalar StVehScenario_600_25.node[272].appl 	generatedWSMs 	0
scalar StVehScenario_600_25.node[272].appl 	receivedWSMs 	0
scalar StVehScenario_600_25.node[272].appl 	generatedBSMs 	36
scalar StVehScenario_600_25.node[272].appl 	receivedBSMs 	3155
scalar StVehScenario_600_25.node[272].appl 	generatedWSAs 	0
scalar StVehScenario_600_25.node[272].appl 	receivedWSAs 	0
scalar StVehScenario_600_25.node[272].appl 	rmseSUMGPS 	84.759855478451
scalar StVehScenario_600_25.node[272].appl 	rmseSUMCP 	2.4834246617814e-308
scalar StVehScenario_600_25.node[272].appl 	delaySum 	6.898400172677e-310
scalar StVehScenario_600_25.node[272].nic.phy80211p 	busyTime 	0.0092183019795042
scalar StVehScenario_600_25.node[272].nic.mac1609_4 	ReceivedUnicastPackets 	0
scalar StVehScenario_600_25.node[272].nic.mac1609_4 	ReceivedBroadcasts 	3155
scalar StVehScenario_600_25.node[272].nic.mac1609_4 	SentPackets 	36
scalar StVehScenario_600_25.node[272].nic.mac1609_4 	SNIRLostPackets 	49
scalar StVehScenario_600_25.node[272].nic.mac1609_4 	RXTXLostPackets 	0
scalar StVehScenario_600_25.node[272].nic.mac1609_4 	TotalLostPackets 	49
scalar StVehScenario_600_25.node[272].nic.mac1609_4 	DroppedPacketsInMac 	0
scalar StVehScenario_600_25.node[272].nic.mac1609_4 	TooLittleTime 	0
scalar StVehScenario_600_25.node[272].nic.mac1609_4 	TimesIntoBackoff 	36
scalar StVehScenario_600_25.node[272].nic.mac1609_4 	SlotsBackoff 	54
scalar StVehScenario_600_25.node[272].nic.mac1609_4 	NumInternalContention 	0
scalar StVehScenario_600_25.node[272].nic.mac1609_4 	totalBusyTime 	0.33606
scalar StVehScenario_600_25.node[272].veinsmobility 	startTime 	3
scalar StVehScenario_600_25.node[272].veinsmobility 	totalTime 	36
scalar StVehScenario_600_25.node[272].veinsmobility 	stopTime 	39.147221119557
scalar StVehScenario_600_25.node[272].veinsmobility 	minSpeed 	4.6076363547909e-14
scalar StVehScenario_600_25.node[272].veinsmobility 	maxSpeed 	13.888243620663
scalar StVehScenario_600_25.node[272].veinsmobility 	totalDistance 	306.86959666771
scalar StVehScenario_600_25.node[272].veinsmobility 	totalCO2Emission 	79.305385977106
scalar StVehScenario_600_25.node[229].appl 	generatedWSMs 	0
scalar StVehScenario_600_25.node[229].appl 	receivedWSMs 	0
scalar StVehScenario_600_25.node[229].appl 	generatedBSMs 	37
scalar StVehScenario_600_25.node[229].appl 	receivedBSMs 	1861
scalar StVehScenario_600_25.node[229].appl 	generatedWSAs 	0
scalar StVehScenario_600_25.node[229].appl 	receivedWSAs 	0
scalar StVehScenario_600_25.node[229].appl 	rmseSUMGPS 	88.458733233802
scalar StVehScenario_600_25.node[229].appl 	rmseSUMCP 	0
scalar StVehScenario_600_25.node[229].appl 	delaySum 	2.9370669065497e-316
scalar StVehScenario_600_25.node[229].nic.phy80211p 	busyTime 	0.005252182912204
scalar StVehScenario_600_25.node[229].nic.mac1609_4 	ReceivedUnicastPackets 	0
scalar StVehScenario_600_25.node[229].nic.mac1609_4 	ReceivedBroadcasts 	1861
scalar StVehScenario_600_25.node[229].nic.mac1609_4 	SentPackets 	37
scalar StVehScenario_600_25.node[229].nic.mac1609_4 	SNIRLostPackets 	15
scalar StVehScenario_600_25.node[229].nic.mac1609_4 	RXTXLostPackets 	0
scalar StVehScenario_600_25.node[229].nic.mac1609_4 	TotalLostPackets 	15
scalar StVehScenario_600_25.node[229].nic.mac1609_4 	DroppedPacketsInMac 	0
scalar StVehScenario_600_25.node[229].nic.mac1609_4 	TooLittleTime 	0
scalar StVehScenario_600_25.node[229].nic.mac1609_4 	TimesIntoBackoff 	37
scalar StVehScenario_600_25.node[229].nic.mac1609_4 	SlotsBackoff 	57
scalar StVehScenario_600_25.node[229].nic.mac1609_4 	NumInternalContention 	0
scalar StVehScenario_600_25.node[229].nic.mac1609_4 	totalBusyTime 	0.198365
scalar StVehScenario_600_25.node[229].veinsmobility 	startTime 	2
scalar StVehScenario_600_25.node[229].veinsmobility 	totalTime 	37
scalar StVehScenario_600_25.node[229].veinsmobility 	stopTime 	39.147221119557
scalar StVehScenario_600_25.node[229].veinsmobility 	minSpeed 	0.42752284778457
scalar StVehScenario_600_25.node[229].veinsmobility 	maxSpeed 	13.89601546406
scalar StVehScenario_600_25.node[229].veinsmobility 	totalDistance 	307.66455320444
scalar StVehScenario_600_25.node[229].veinsmobility 	totalCO2Emission 	95.897646250541
scalar StVehScenario_600_25.node[273].appl 	generatedWSMs 	0
scalar StVehScenario_600_25.node[273].appl 	receivedWSMs 	0
scalar StVehScenario_600_25.node[273].appl 	generatedBSMs 	36
scalar StVehScenario_600_25.node[273].appl 	receivedBSMs 	3012
scalar StVehScenario_600_25.node[273].appl 	generatedWSAs 	0
scalar StVehScenario_600_25.node[273].appl 	receivedWSAs 	0
scalar StVehScenario_600_25.node[273].appl 	rmseSUMGPS 	86.927986439712
scalar StVehScenario_600_25.node[273].appl 	rmseSUMCP 	1.0890721125783e-314
scalar StVehScenario_600_25.node[273].appl 	delaySum 	3.0252145418081e-316
scalar StVehScenario_600_25.node[273].nic.phy80211p 	busyTime 	0.0087665936740167
scalar StVehScenario_600_25.node[273].nic.mac1609_4 	ReceivedUnicastPackets 	0
scalar StVehScenario_600_25.node[273].nic.mac1609_4 	ReceivedBroadcasts 	3012
scalar StVehScenario_600_25.node[273].nic.mac1609_4 	SentPackets 	36
scalar StVehScenario_600_25.node[273].nic.mac1609_4 	SNIRLostPackets 	35
scalar StVehScenario_600_25.node[273].nic.mac1609_4 	RXTXLostPackets 	0
scalar StVehScenario_600_25.node[273].nic.mac1609_4 	TotalLostPackets 	35
scalar StVehScenario_600_25.node[273].nic.mac1609_4 	DroppedPacketsInMac 	0
scalar StVehScenario_600_25.node[273].nic.mac1609_4 	TooLittleTime 	0
scalar StVehScenario_600_25.node[273].nic.mac1609_4 	TimesIntoBackoff 	36
scalar StVehScenario_600_25.node[273].nic.mac1609_4 	SlotsBackoff 	47
scalar StVehScenario_600_25.node[273].nic.mac1609_4 	NumInternalContention 	0
scalar StVehScenario_600_25.node[273].nic.mac1609_4 	totalBusyTime 	0.320356
scalar StVehScenario_600_25.node[273].veinsmobility 	startTime 	3
scalar StVehScenario_600_25.node[273].veinsmobility 	totalTime 	36
scalar StVehScenario_600_25.node[273].veinsmobility 	stopTime 	39.147221119557
scalar StVehScenario_600_25.node[273].veinsmobility 	minSpeed 	2.6625363110747
scalar StVehScenario_600_25.node[273].veinsmobility 	maxSpeed 	13.897073490086
scalar StVehScenario_600_25.node[273].veinsmobility 	totalDistance 	400.10057030887
scalar StVehScenario_600_25.node[273].veinsmobility 	totalCO2Emission 	108.42454462402
scalar StVehScenario_600_25.node[442].appl 	generatedWSMs 	0
scalar StVehScenario_600_25.node[442].appl 	receivedWSMs 	0
scalar StVehScenario_600_25.node[442].appl 	generatedBSMs 	33
scalar StVehScenario_600_25.node[442].appl 	receivedBSMs 	2401
scalar StVehScenario_600_25.node[442].appl 	generatedWSAs 	0
scalar StVehScenario_600_25.node[442].appl 	receivedWSAs 	0
scalar StVehScenario_600_25.node[442].appl 	rmseSUMGPS 	73.919096445892
scalar StVehScenario_600_25.node[442].appl 	rmseSUMCP 	1.2695308229097e-314
scalar StVehScenario_600_25.node[442].appl 	delaySum 	3.162020133384e-322
scalar StVehScenario_600_25.node[442].nic.phy80211p 	busyTime 	0.0076555437056012
scalar StVehScenario_600_25.node[442].nic.mac1609_4 	ReceivedUnicastPackets 	0
scalar StVehScenario_600_25.node[442].nic.mac1609_4 	ReceivedBroadcasts 	2401
scalar StVehScenario_600_25.node[442].nic.mac1609_4 	SentPackets 	33
scalar StVehScenario_600_25.node[442].nic.mac1609_4 	SNIRLostPackets 	39
scalar StVehScenario_600_25.node[442].nic.mac1609_4 	RXTXLostPackets 	0
scalar StVehScenario_600_25.node[442].nic.mac1609_4 	TotalLostPackets 	39
scalar StVehScenario_600_25.node[442].nic.mac1609_4 	DroppedPacketsInMac 	0
scalar StVehScenario_600_25.node[442].nic.mac1609_4 	TooLittleTime 	0
scalar StVehScenario_600_25.node[442].nic.mac1609_4 	TimesIntoBackoff 	33
scalar StVehScenario_600_25.node[442].nic.mac1609_4 	SlotsBackoff 	53
scalar StVehScenario_600_25.node[442].nic.mac1609_4 	NumInternalContention 	0
scalar StVehScenario_600_25.node[442].nic.mac1609_4 	totalBusyTime 	0.257225
scalar StVehScenario_600_25.node[442].veinsmobility 	startTime 	6
scalar StVehScenario_600_25.node[442].veinsmobility 	totalTime 	33
scalar StVehScenario_600_25.node[442].veinsmobility 	stopTime 	39.147221119557
scalar StVehScenario_600_25.node[442].veinsmobility 	minSpeed 	4.5397795561438e-14
scalar StVehScenario_600_25.node[442].veinsmobility 	maxSpeed 	13.899172827401
scalar StVehScenario_600_25.node[442].veinsmobility 	totalDistance 	240.68506961487
scalar StVehScenario_600_25.node[442].veinsmobility 	totalCO2Emission 	71.865853272999
scalar StVehScenario_600_25.node[71].appl 	generatedWSMs 	0
scalar StVehScenario_600_25.node[71].appl 	receivedWSMs 	0
scalar StVehScenario_600_25.node[71].appl 	generatedBSMs 	38
scalar StVehScenario_600_25.node[71].appl 	receivedBSMs 	1971
scalar StVehScenario_600_25.node[71].appl 	generatedWSAs 	0
scalar StVehScenario_600_25.node[71].appl 	receivedWSAs 	0
scalar StVehScenario_600_25.node[71].appl 	rmseSUMGPS 	87.708247509585
scalar StVehScenario_600_25.node[71].appl 	rmseSUMCP 	0
scalar StVehScenario_600_25.node[71].appl 	delaySum 	0
scalar StVehScenario_600_25.node[71].nic.phy80211p 	busyTime 	0.0054389282865385
scalar StVehScenario_600_25.node[71].nic.mac1609_4 	ReceivedUnicastPackets 	0
scalar StVehScenario_600_25.node[71].nic.mac1609_4 	ReceivedBroadcasts 	1971
scalar StVehScenario_600_25.node[71].nic.mac1609_4 	SentPackets 	38
scalar StVehScenario_600_25.node[71].nic.mac1609_4 	SNIRLostPackets 	23
scalar StVehScenario_600_25.node[71].nic.mac1609_4 	RXTXLostPackets 	0
scalar StVehScenario_600_25.node[71].nic.mac1609_4 	TotalLostPackets 	23
scalar StVehScenario_600_25.node[71].nic.mac1609_4 	DroppedPacketsInMac 	0
scalar StVehScenario_600_25.node[71].nic.mac1609_4 	TooLittleTime 	0
scalar StVehScenario_600_25.node[71].nic.mac1609_4 	TimesIntoBackoff 	38
scalar StVehScenario_600_25.node[71].nic.mac1609_4 	SlotsBackoff 	63
scalar StVehScenario_600_25.node[71].nic.mac1609_4 	NumInternalContention 	0
scalar StVehScenario_600_25.node[71].nic.mac1609_4 	totalBusyTime 	0.211366
scalar StVehScenario_600_25.node[71].veinsmobility 	startTime 	1
scalar StVehScenario_600_25.node[71].veinsmobility 	totalTime 	38
scalar StVehScenario_600_25.node[71].veinsmobility 	stopTime 	39.147221119557
scalar StVehScenario_600_25.node[71].veinsmobility 	minSpeed 	1.1008261442476
scalar StVehScenario_600_25.node[71].veinsmobility 	maxSpeed 	13.880623462966
scalar StVehScenario_600_25.node[71].veinsmobility 	totalDistance 	366.80822137909
scalar StVehScenario_600_25.node[71].veinsmobility 	totalCO2Emission 	122.10923270681
scalar StVehScenario_600_25.node[443].appl 	generatedWSMs 	0
scalar StVehScenario_600_25.node[443].appl 	receivedWSMs 	0
scalar StVehScenario_600_25.node[443].appl 	generatedBSMs 	33
scalar StVehScenario_600_25.node[443].appl 	receivedBSMs 	2515
scalar StVehScenario_600_25.node[443].appl 	generatedWSAs 	0
scalar StVehScenario_600_25.node[443].appl 	receivedWSAs 	0
scalar StVehScenario_600_25.node[443].appl 	rmseSUMGPS 	89.471826836847
scalar StVehScenario_600_25.node[443].appl 	rmseSUMCP 	1.5815041323378e-320
scalar StVehScenario_600_25.node[443].appl 	delaySum 	0
scalar StVehScenario_600_25.node[443].nic.phy80211p 	busyTime 	0.0079661579789022
scalar StVehScenario_600_25.node[443].nic.mac1609_4 	ReceivedUnicastPackets 	0
scalar StVehScenario_600_25.node[443].nic.mac1609_4 	ReceivedBroadcasts 	2515
scalar StVehScenario_600_25.node[443].nic.mac1609_4 	SentPackets 	33
scalar StVehScenario_600_25.node[443].nic.mac1609_4 	SNIRLostPackets 	24
scalar StVehScenario_600_25.node[443].nic.mac1609_4 	RXTXLostPackets 	0
scalar StVehScenario_600_25.node[443].nic.mac1609_4 	TotalLostPackets 	24
scalar StVehScenario_600_25.node[443].nic.mac1609_4 	DroppedPacketsInMac 	0
scalar StVehScenario_600_25.node[443].nic.mac1609_4 	TooLittleTime 	0
scalar StVehScenario_600_25.node[443].nic.mac1609_4 	TimesIntoBackoff 	33
scalar StVehScenario_600_25.node[443].nic.mac1609_4 	SlotsBackoff 	60
scalar StVehScenario_600_25.node[443].nic.mac1609_4 	NumInternalContention 	0
scalar StVehScenario_600_25.node[443].nic.mac1609_4 	totalBusyTime 	0.267521
scalar StVehScenario_600_25.node[443].veinsmobility 	startTime 	6
scalar StVehScenario_600_25.node[443].veinsmobility 	totalTime 	33
scalar StVehScenario_600_25.node[443].veinsmobility 	stopTime 	39.147221119557
scalar StVehScenario_600_25.node[443].veinsmobility 	minSpeed 	3.2303656959666
scalar StVehScenario_600_25.node[443].veinsmobility 	maxSpeed 	13.888451062047
scalar StVehScenario_600_25.node[443].veinsmobility 	totalDistance 	370.05505862475
scalar StVehScenario_600_25.node[443].veinsmobility 	totalCO2Emission 	104.50780397999
scalar StVehScenario_600_25.node[72].appl 	generatedWSMs 	0
scalar StVehScenario_600_25.node[72].appl 	receivedWSMs 	0
scalar StVehScenario_600_25.node[72].appl 	generatedBSMs 	38
scalar StVehScenario_600_25.node[72].appl 	receivedBSMs 	1014
scalar StVehScenario_600_25.node[72].appl 	generatedWSAs 	0
scalar StVehScenario_600_25.node[72].appl 	receivedWSAs 	0
scalar StVehScenario_600_25.node[72].appl 	rmseSUMGPS 	70.761734720503
scalar StVehScenario_600_25.node[72].appl 	rmseSUMCP 	0
scalar StVehScenario_600_25.node[72].appl 	delaySum 	0
scalar StVehScenario_600_25.node[72].nic.phy80211p 	busyTime 	0.0027726266002054
scalar StVehScenario_600_25.node[72].nic.mac1609_4 	ReceivedUnicastPackets 	0
scalar StVehScenario_600_25.node[72].nic.mac1609_4 	ReceivedBroadcasts 	1014
scalar StVehScenario_600_25.node[72].nic.mac1609_4 	SentPackets 	38
scalar StVehScenario_600_25.node[72].nic.mac1609_4 	SNIRLostPackets 	3
scalar StVehScenario_600_25.node[72].nic.mac1609_4 	RXTXLostPackets 	0
scalar StVehScenario_600_25.node[72].nic.mac1609_4 	TotalLostPackets 	3
scalar StVehScenario_600_25.node[72].nic.mac1609_4 	DroppedPacketsInMac 	0
scalar StVehScenario_600_25.node[72].nic.mac1609_4 	TooLittleTime 	0
scalar StVehScenario_600_25.node[72].nic.mac1609_4 	TimesIntoBackoff 	38
scalar StVehScenario_600_25.node[72].nic.mac1609_4 	SlotsBackoff 	47
scalar StVehScenario_600_25.node[72].nic.mac1609_4 	NumInternalContention 	0
scalar StVehScenario_600_25.node[72].nic.mac1609_4 	totalBusyTime 	0.109758
scalar StVehScenario_600_25.node[72].veinsmobility 	startTime 	1
scalar StVehScenario_600_25.node[72].veinsmobility 	totalTime 	38
scalar StVehScenario_600_25.node[72].veinsmobility 	stopTime 	39.147221119557
scalar StVehScenario_600_25.node[72].veinsmobility 	minSpeed 	3.9431751653735
scalar StVehScenario_600_25.node[72].veinsmobility 	maxSpeed 	13.899481742836
scalar StVehScenario_600_25.node[72].veinsmobility 	totalDistance 	485.37221221174
scalar StVehScenario_600_25.node[72].veinsmobility 	totalCO2Emission 	96.612901151678
scalar StVehScenario_600_25.node[73].appl 	generatedWSMs 	0
scalar StVehScenario_600_25.node[73].appl 	receivedWSMs 	0
scalar StVehScenario_600_25.node[73].appl 	generatedBSMs 	39
scalar StVehScenario_600_25.node[73].appl 	receivedBSMs 	2212
scalar StVehScenario_600_25.node[73].appl 	generatedWSAs 	0
scalar StVehScenario_600_25.node[73].appl 	receivedWSAs 	0
scalar StVehScenario_600_25.node[73].appl 	rmseSUMGPS 	82.789878730876
scalar StVehScenario_600_25.node[73].appl 	rmseSUMCP 	0
scalar StVehScenario_600_25.node[73].appl 	delaySum 	0
scalar StVehScenario_600_25.node[73].nic.phy80211p 	busyTime 	0.0060877828891431
scalar StVehScenario_600_25.node[73].nic.mac1609_4 	ReceivedUnicastPackets 	0
scalar StVehScenario_600_25.node[73].nic.mac1609_4 	ReceivedBroadcasts 	2212
scalar StVehScenario_600_25.node[73].nic.mac1609_4 	SentPackets 	39
scalar StVehScenario_600_25.node[73].nic.mac1609_4 	SNIRLostPackets 	21
scalar StVehScenario_600_25.node[73].nic.mac1609_4 	RXTXLostPackets 	0
scalar StVehScenario_600_25.node[73].nic.mac1609_4 	TotalLostPackets 	21
scalar StVehScenario_600_25.node[73].nic.mac1609_4 	DroppedPacketsInMac 	0
scalar StVehScenario_600_25.node[73].nic.mac1609_4 	TooLittleTime 	0
scalar StVehScenario_600_25.node[73].nic.mac1609_4 	TimesIntoBackoff 	39
scalar StVehScenario_600_25.node[73].nic.mac1609_4 	SlotsBackoff 	64
scalar StVehScenario_600_25.node[73].nic.mac1609_4 	NumInternalContention 	0
scalar StVehScenario_600_25.node[73].nic.mac1609_4 	totalBusyTime 	0.235183
scalar StVehScenario_600_25.node[73].veinsmobility 	startTime 	1
scalar StVehScenario_600_25.node[73].veinsmobility 	totalTime 	38
scalar StVehScenario_600_25.node[73].veinsmobility 	stopTime 	39.147221119557
scalar StVehScenario_600_25.node[73].veinsmobility 	minSpeed 	0
scalar StVehScenario_600_25.node[73].veinsmobility 	maxSpeed 	13.893421120176
scalar StVehScenario_600_25.node[73].veinsmobility 	totalDistance 	297.41088936917
scalar StVehScenario_600_25.node[73].veinsmobility 	totalCO2Emission 	95.605175133751
scalar StVehScenario_600_25.node[74].appl 	generatedWSMs 	0
scalar StVehScenario_600_25.node[74].appl 	receivedWSMs 	0
scalar StVehScenario_600_25.node[74].appl 	generatedBSMs 	38
scalar StVehScenario_600_25.node[74].appl 	receivedBSMs 	1827
scalar StVehScenario_600_25.node[74].appl 	generatedWSAs 	0
scalar StVehScenario_600_25.node[74].appl 	receivedWSAs 	0
scalar StVehScenario_600_25.node[74].appl 	rmseSUMGPS 	116.93383320148
scalar StVehScenario_600_25.node[74].appl 	rmseSUMCP 	0
scalar StVehScenario_600_25.node[74].appl 	delaySum 	0
scalar StVehScenario_600_25.node[74].nic.phy80211p 	busyTime 	0.0050463439891643
scalar StVehScenario_600_25.node[74].nic.mac1609_4 	ReceivedUnicastPackets 	0
scalar StVehScenario_600_25.node[74].nic.mac1609_4 	ReceivedBroadcasts 	1827
scalar StVehScenario_600_25.node[74].nic.mac1609_4 	SentPackets 	38
scalar StVehScenario_600_25.node[74].nic.mac1609_4 	SNIRLostPackets 	24
scalar StVehScenario_600_25.node[74].nic.mac1609_4 	RXTXLostPackets 	0
scalar StVehScenario_600_25.node[74].nic.mac1609_4 	TotalLostPackets 	24
scalar StVehScenario_600_25.node[74].nic.mac1609_4 	DroppedPacketsInMac 	0
scalar StVehScenario_600_25.node[74].nic.mac1609_4 	TooLittleTime 	0
scalar StVehScenario_600_25.node[74].nic.mac1609_4 	TimesIntoBackoff 	38
scalar StVehScenario_600_25.node[74].nic.mac1609_4 	SlotsBackoff 	65
scalar StVehScenario_600_25.node[74].nic.mac1609_4 	NumInternalContention 	0
scalar StVehScenario_600_25.node[74].nic.mac1609_4 	totalBusyTime 	0.196078
scalar StVehScenario_600_25.node[74].veinsmobility 	startTime 	1
scalar StVehScenario_600_25.node[74].veinsmobility 	totalTime 	38
scalar StVehScenario_600_25.node[74].veinsmobility 	stopTime 	39.147221119557
scalar StVehScenario_600_25.node[74].veinsmobility 	minSpeed 	0
scalar StVehScenario_600_25.node[74].veinsmobility 	maxSpeed 	13.862890789388
scalar StVehScenario_600_25.node[74].veinsmobility 	totalDistance 	248.31968498975
scalar StVehScenario_600_25.node[74].veinsmobility 	totalCO2Emission 	74.635887524255
scalar StVehScenario_600_25.node[75].appl 	generatedWSMs 	0
scalar StVehScenario_600_25.node[75].appl 	receivedWSMs 	0
scalar StVehScenario_600_25.node[75].appl 	generatedBSMs 	38
scalar StVehScenario_600_25.node[75].appl 	receivedBSMs 	2067
scalar StVehScenario_600_25.node[75].appl 	generatedWSAs 	0
scalar StVehScenario_600_25.node[75].appl 	receivedWSAs 	0
scalar StVehScenario_600_25.node[75].appl 	rmseSUMGPS 	81.792662302293
scalar StVehScenario_600_25.node[75].appl 	rmseSUMCP 	0
scalar StVehScenario_600_25.node[75].appl 	delaySum 	0
scalar StVehScenario_600_25.node[75].nic.phy80211p 	busyTime 	0.0057033774312975
scalar StVehScenario_600_25.node[75].nic.mac1609_4 	ReceivedUnicastPackets 	0
scalar StVehScenario_600_25.node[75].nic.mac1609_4 	ReceivedBroadcasts 	2067
scalar StVehSc