version 2
run StVehScenario_100_25-0-20171024-17:52:16-23812
attr configname StVehScenario_100_25
attr datetime 20171024-17:52:16
attr densityMovVeh 100
attr densityStatVeh 25
attr experiment StVehScenario_100_25
attr inifile omnetpp.ini
attr iterationvars "$densityMovVeh=100, $densityStatVeh=25"
attr iterationvars2 "$densityMovVeh=100, $densityStatVeh=25, $repetition=0"
attr measurement "$densityMovVeh=100, $densityStatVeh=25"
attr network com.liborio.sbrc2018.StVehScenario_100_25
attr processid 23812
attr repetition 0
attr replication #0
attr resultdir results
attr runnumber 0
attr seedset 0
param **.coreDebug false
param **.debug false
param *.**.nic.mac1609_4.bitrate 6Mbps
param *.**.nic.mac1609_4.txPower 20mW
param *.**.nic.mac1609_4.useServiceChannel true
param *.**.nic.phy80211p.analogueModels "xmldoc(\"config.xml\")"
param *.**.nic.phy80211p.antenna "xmldoc(\"antenna.xml\", \"/root/Antenna[@id='monopole']\")"
param *.**.nic.phy80211p.decider "xmldoc(\"config.xml\")"
param *.**.nic.phy80211p.sensitivity -84.39dBm
param *.**.nic.phy80211p.thermalNoise -110dBm
param *.**.nic.phy80211p.usePropagationDelay true
param *.**.nic.phy80211p.useThermalNoise true
param *.annotations.draw true
param *.connectionManager.drawMaxIntfDist false
param *.connectionManager.maxInterfDist 2600m
param *.connectionManager.sendDirect true
param *.manager.autoShutdown true
param *.manager.host "\"localhost\""
param *.manager.launchConfig "xmldoc(string(${densityMovVeh=100})+\"_\"+ string(${repetition})+\".launchd.xml\")"
param *.manager.port 9999
param *.manager.updateInterval 0.1s
param *.node[*].appl.beaconInterval 0.1s
param *.node[*].appl.dataOnSch false
param *.node[*].appl.densityMovVeh ${densityMovVeh}
param *.node[*].appl.densityStatVeh "${densityStatVeh =25}"
param *.node[*].appl.headerLength "80 bit"
param *.node[*].appl.seedPar ${repetition}
param *.node[*].appl.sendBeacons true
param *.node[*].appl.wsmInterval 5s
param *.node[*].applType "\"Communication\""
param *.node[*].veinsmobility.x 0
param *.node[*].veinsmobility.y 0
param *.node[*].veinsmobility.z 1.895
param *.node[*].veinsmobilityType.debug true
param *.playgroundSizeX 2500m
param *.playgroundSizeY 2500m
param *.playgroundSizeZ 50m
param *.rsu[*].appl.beaconInterval 0.1s
param *.rsu[*].appl.beaconUserPriority 7
param *.rsu[*].appl.dataOnSch false
param *.rsu[*].appl.dataUserPriority 5
param *.rsu[*].appl.headerLength "80 bit"
param *.rsu[*].appl.seedPar ${repetition}
param *.rsu[*].appl.sendBeacons true
param *.rsu[*].applType "\"StatVehicle\""
param *.rsu[0].mobility.x 46.0575038438
param *.rsu[0].mobility.y 46.0575038438
param *.rsu[0].mobility.z 1.89
param *.rsu[10].mobility.x 270
param *.rsu[10].mobility.y 270
param *.rsu[10].mobility.z 1.89
param *.rsu[11].mobility.x 78.7382950246
param *.rsu[11].mobility.y 78.7382950246
param *.rsu[11].mobility.z 1.89
param *.rsu[12].mobility.x 0
param *.rsu[12].mobility.y 0
param *.rsu[12].mobility.z 1.89
param *.rsu[13].mobility.x 0
param *.rsu[13].mobility.y 0
param *.rsu[13].mobility.z 1.89
param *.rsu[14].mobility.x 375.492395765
param *.rsu[14].mobility.y 375.492395765
param *.rsu[14].mobility.z 1.89
param *.rsu[15].mobility.x 323.947300459
param *.rsu[15].mobility.y 323.947300459
param *.rsu[15].mobility.z 1.89
param *.rsu[16].mobility.x 133.962159198
param *.rsu[16].mobility.y 133.962159198
param *.rsu[16].mobility.z 1.89
param *.rsu[17].mobility.x 78.9187185886
param *.rsu[17].mobility.y 78.9187185886
param *.rsu[17].mobility.z 1.89
param *.rsu[18].mobility.x 261.060383954
param *.rsu[18].mobility.y 261.060383954
param *.rsu[18].mobility.z 1.89
param *.rsu[19].mobility.x 270
param *.rsu[19].mobility.y 270
param *.rsu[19].mobility.z 1.89
param *.rsu[1].mobility.x 0
param *.rsu[1].mobility.y 0
param *.rsu[1].mobility.z 1.89
param *.rsu[20].mobility.x 270
param *.rsu[20].mobility.y 270
param *.rsu[20].mobility.z 1.89
param *.rsu[21].mobility.x 270
param *.rsu[21].mobility.y 270
param *.rsu[21].mobility.z 1.89
param *.rsu[22].mobility.x 270
param *.rsu[22].mobility.y 270
param *.rsu[22].mobility.z 1.89
param *.rsu[23].mobility.x 270
param *.rsu[23].mobility.y 270
param *.rsu[23].mobility.z 1.89
param *.rsu[24].mobility.x 426.115263869
param *.rsu[24].mobility.y 426.115263869
param *.rsu[24].mobility.z 1.89
param *.rsu[2].mobility.x 39.7487117525
param *.rsu[2].mobility.y 39.7487117525
param *.rsu[2].mobility.z 1.89
param *.rsu[3].mobility.x 0
param *.rsu[3].mobility.y 0
param *.rsu[3].mobility.z 1.89
param *.rsu[4].mobility.x 29.849648723
param *.rsu[4].mobility.y 29.849648723
param *.rsu[4].mobility.z 1.89
param *.rsu[5].mobility.x 83.679764663
param *.rsu[5].mobility.y 83.679764663
param *.rsu[5].mobility.z 1.89
param *.rsu[6].mobility.x 270
param *.rsu[6].mobility.y 270
param *.rsu[6].mobility.z 1.89
param *.rsu[7].mobility.x 0
param *.rsu[7].mobility.y 0
param *.rsu[7].mobility.z 1.89
param *.rsu[8].mobility.x 126.674788497
param *.rsu[8].mobility.y 126.674788497
param *.rsu[8].mobility.z 1.89
param *.rsu[9].mobility.x 12.5905197021
param *.rsu[9].mobility.y 12.5905197021
param *.rsu[9].mobility.z 1.89

scalar . 	densityMovVeh 	100
scalar . 	densityStatVeh 	25
scalar StVehScenario_100_25.node[51].appl 	generatedWSMs 	0
scalar StVehScenario_100_25.node[51].appl 	receivedWSMs 	0
scalar StVehScenario_100_25.node[51].appl 	generatedBSMs 	251
scalar StVehScenario_100_25.node[51].appl 	receivedBSMs 	1728
scalar StVehScenario_100_25.node[51].appl 	generatedWSAs 	0
scalar StVehScenario_100_25.node[51].appl 	receivedWSAs 	0
scalar StVehScenario_100_25.node[51].appl 	rmseSUMGPS 	621.01848633746
scalar StVehScenario_100_25.node[51].appl 	rmseSUMCP 	17340.100665384
scalar StVehScenario_100_25.node[51].appl 	delaySum 	0.19331874730606
scalar StVehScenario_100_25.node[51].nic.phy80211p 	busyTime 	0.0071598406374502
scalar StVehScenario_100_25.node[51].nic.mac1609_4 	ReceivedUnicastPackets 	0
scalar StVehScenario_100_25.node[51].nic.mac1609_4 	ReceivedBroadcasts 	1728
scalar StVehScenario_100_25.node[51].nic.mac1609_4 	SentPackets 	251
scalar StVehScenario_100_25.node[51].nic.mac1609_4 	SNIRLostPackets 	0
scalar StVehScenario_100_25.node[51].nic.mac1609_4 	RXTXLostPackets 	0
scalar StVehScenario_100_25.node[51].nic.mac1609_4 	TotalLostPackets 	0
scalar StVehScenario_100_25.node[51].nic.mac1609_4 	DroppedPacketsInMac 	0
scalar StVehScenario_100_25.node[51].nic.mac1609_4 	TooLittleTime 	0
scalar StVehScenario_100_25.node[51].nic.mac1609_4 	TimesIntoBackoff 	251
scalar StVehScenario_100_25.node[51].nic.mac1609_4 	SlotsBackoff 	406
scalar StVehScenario_100_25.node[51].nic.mac1609_4 	NumInternalContention 	0
scalar StVehScenario_100_25.node[51].nic.mac1609_4 	totalBusyTime 	0.206067
scalar StVehScenario_100_25.node[51].veinsmobility 	startTime 	0.1
scalar StVehScenario_100_25.node[51].veinsmobility 	totalTime 	25
scalar StVehScenario_100_25.node[51].veinsmobility 	stopTime 	25.2
scalar StVehScenario_100_25.node[51].veinsmobility 	minSpeed 	0.2511745660624
scalar StVehScenario_100_25.node[51].veinsmobility 	maxSpeed 	13.899512215643
scalar StVehScenario_100_25.node[51].veinsmobility 	totalDistance 	297.55022261659
scalar StVehScenario_100_25.node[51].veinsmobility 	totalCO2Emission 	75.579964123634
scalar StVehScenario_100_25.node[14].appl 	generatedWSMs 	0
scalar StVehScenario_100_25.node[14].appl 	receivedWSMs 	0
scalar StVehScenario_100_25.node[14].appl 	generatedBSMs 	320
scalar StVehScenario_100_25.node[14].appl 	receivedBSMs 	5676
scalar StVehScenario_100_25.node[14].appl 	generatedWSAs 	0
scalar StVehScenario_100_25.node[14].appl 	receivedWSAs 	0
scalar StVehScenario_100_25.node[14].appl 	rmseSUMGPS 	709.26006602976
scalar StVehScenario_100_25.node[14].appl 	rmseSUMCP 	0
scalar StVehScenario_100_25.node[14].appl 	delaySum 	0.00022241259800002
scalar StVehScenario_100_25.node[14].nic.phy80211p 	busyTime 	0.019217249999999
scalar StVehScenario_100_25.node[14].nic.mac1609_4 	ReceivedUnicastPackets 	0
scalar StVehScenario_100_25.node[14].nic.mac1609_4 	ReceivedBroadcasts 	5676
scalar StVehScenario_100_25.node[14].nic.mac1609_4 	SentPackets 	320
scalar StVehScenario_100_25.node[14].nic.mac1609_4 	SNIRLostPackets 	237
scalar StVehScenario_100_25.node[14].nic.mac1609_4 	RXTXLostPackets 	0
scalar StVehScenario_100_25.node[14].nic.mac1609_4 	TotalLostPackets 	237
scalar StVehScenario_100_25.node[14].nic.mac1609_4 	DroppedPacketsInMac 	0
scalar StVehScenario_100_25.node[14].nic.mac1609_4 	TooLittleTime 	0
scalar StVehScenario_100_25.node[14].nic.mac1609_4 	TimesIntoBackoff 	320
scalar StVehScenario_100_25.node[14].nic.mac1609_4 	SlotsBackoff 	460
scalar StVehScenario_100_25.node[14].nic.mac1609_4 	NumInternalContention 	0
scalar StVehScenario_100_25.node[14].nic.mac1609_4 	totalBusyTime 	0.643144
scalar StVehScenario_100_25.node[14].veinsmobility 	startTime 	0.1
scalar StVehScenario_100_25.node[14].veinsmobility 	totalTime 	31.9
scalar StVehScenario_100_25.node[14].veinsmobility 	stopTime 	32.1
scalar StVehScenario_100_25.node[14].veinsmobility 	minSpeed 	0.25197073848895
scalar StVehScenario_100_25.node[14].veinsmobility 	maxSpeed 	13.899859896889
scalar StVehScenario_100_25.node[14].veinsmobility 	totalDistance 	396.39269916332
scalar StVehScenario_100_25.node[14].veinsmobility 	totalCO2Emission 	92.319932749651
scalar StVehScenario_100_25.node[64].appl 	generatedWSMs 	0
scalar StVehScenario_100_25.node[64].appl 	receivedWSMs 	0
scalar StVehScenario_100_25.node[64].appl 	generatedBSMs 	355
scalar StVehScenario_100_25.node[64].appl 	receivedBSMs 	1860
scalar StVehScenario_100_25.node[64].appl 	generatedWSAs 	0
scalar StVehScenario_100_25.node[64].appl 	receivedWSAs 	0
scalar StVehScenario_100_25.node[64].appl 	rmseSUMGPS 	808.09025901317
scalar StVehScenario_100_25.node[64].appl 	rmseSUMCP 	110322.55300353
scalar StVehScenario_100_25.node[64].appl 	delaySum 	0.20830726674297
scalar StVehScenario_100_25.node[64].nic.phy80211p 	busyTime 	0.005920676056338
scalar StVehScenario_100_25.node[64].nic.mac1609_4 	ReceivedUnicastPackets 	0
scalar StVehScenario_100_25.node[64].nic.mac1609_4 	ReceivedBroadcasts 	1860
scalar StVehScenario_100_25.node[64].nic.mac1609_4 	SentPackets 	355
scalar StVehScenario_100_25.node[64].nic.mac1609_4 	SNIRLostPackets 	161
scalar StVehScenario_100_25.node[64].nic.mac1609_4 	RXTXLostPackets 	0
scalar StVehScenario_100_25.node[64].nic.mac1609_4 	TotalLostPackets 	161
scalar StVehScenario_100_25.node[64].nic.mac1609_4 	DroppedPacketsInMac 	0
scalar StVehScenario_100_25.node[64].nic.mac1609_4 	TooLittleTime 	0
scalar StVehScenario_100_25.node[64].nic.mac1609_4 	TimesIntoBackoff 	355
scalar StVehScenario_100_25.node[64].nic.mac1609_4 	SlotsBackoff 	518
scalar StVehScenario_100_25.node[64].nic.mac1609_4 	NumInternalContention 	0
scalar StVehScenario_100_25.node[64].nic.mac1609_4 	totalBusyTime 	0.244443
scalar StVehScenario_100_25.node[64].veinsmobility 	startTime 	0.1
scalar StVehScenario_100_25.node[64].veinsmobility 	totalTime 	35.4
scalar StVehScenario_100_25.node[64].veinsmobility 	stopTime 	35.6
scalar StVehScenario_100_25.node[64].veinsmobility 	minSpeed 	0.24796724376804
scalar StVehScenario_100_25.node[64].veinsmobility 	maxSpeed 	13.899259721031
scalar StVehScenario_100_25.node[64].veinsmobility 	totalDistance 	399.16524530832
scalar StVehScenario_100_25.node[64].veinsmobility 	totalCO2Emission 	113.98196318607
scalar StVehScenario_100_25.node[73].appl 	generatedWSMs 	0
scalar StVehScenario_100_25.node[73].appl 	receivedWSMs 	0
scalar StVehScenario_100_25.node[73].appl 	generatedBSMs 	394
scalar StVehScenario_100_25.node[73].appl 	receivedBSMs 	6369
scalar StVehScenario_100_25.node[73].appl 	generatedWSAs 	0
scalar StVehScenario_100_25.node[73].appl 	receivedWSAs 	0
scalar StVehScenario_100_25.node[73].appl 	rmseSUMGPS 	989.15600020284
scalar StVehScenario_100_25.node[73].appl 	rmseSUMCP 	0
scalar StVehScenario_100_25.node[73].appl 	delaySum 	0.00011049282999999
scalar StVehScenario_100_25.node[73].nic.phy80211p 	busyTime 	0.017094010152283
scalar StVehScenario_100_25.node[73].nic.mac1609_4 	ReceivedUnicastPackets 	0
scalar StVehScenario_100_25.node[73].nic.mac1609_4 	ReceivedBroadcasts 	6369
scalar StVehScenario_100_25.node[73].nic.mac1609_4 	SentPackets 	394
scalar StVehScenario_100_25.node[73].nic.mac1609_4 	SNIRLostPackets 	107
scalar StVehScenario_100_25.node[73].nic.mac1609_4 	RXTXLostPackets 	0
scalar StVehScenario_100_25.node[73].nic.mac1609_4 	TotalLostPackets 	107
scalar StVehScenario_100_25.node[73].nic.mac1609_4 	DroppedPacketsInMac 	0
scalar StVehScenario_100_25.node[73].nic.mac1609_4 	TooLittleTime 	0
scalar StVehScenario_100_25.node[73].nic.mac1609_4 	TimesIntoBackoff 	394
scalar StVehScenario_100_25.node[73].nic.mac1609_4 	SlotsBackoff 	562
scalar StVehScenario_100_25.node[73].nic.mac1609_4 	NumInternalContention 	0
scalar StVehScenario_100_25.node[73].nic.mac1609_4 	totalBusyTime 	0.714874
scalar StVehScenario_100_25.node[73].veinsmobility 	startTime 	0.1
scalar StVehScenario_100_25.node[73].veinsmobility 	totalTime 	39.3
scalar StVehScenario_100_25.node[73].veinsmobility 	stopTime 	39.5
scalar StVehScenario_100_25.node[73].veinsmobility 	minSpeed 	0.25415065013571
scalar StVehScenario_100_25.node[73].veinsmobility 	maxSpeed 	13.899206943747
scalar StVehScenario_100_25.node[73].veinsmobility 	totalDistance 	398.2190839604
scalar StVehScenario_100_25.node[73].veinsmobility 	totalCO2Emission 	118.64319213461
scalar StVehScenario_100_25.node[49].appl 	generatedWSMs 	0
scalar StVehScenario_100_25.node[49].appl 	receivedWSMs 	0
scalar StVehScenario_100_25.node[49].appl 	generatedBSMs 	403
scalar StVehScenario_100_25.node[49].appl 	receivedBSMs 	2718
scalar StVehScenario_100_25.node[49].appl 	generatedWSAs 	0
scalar StVehScenario_100_25.node[49].appl 	receivedWSAs 	0
scalar StVehScenario_100_25.node[49].appl 	rmseSUMGPS 	946.45678783292
scalar StVehScenario_100_25.node[49].appl 	rmseSUMCP 	43268.002562644
scalar StVehScenario_100_25.node[49].appl 	delaySum 	0.30467180640618
scalar StVehScenario_100_25.node[49].nic.phy80211p 	busyTime 	0.0073367741935482
scalar StVehScenario_100_25.node[49].nic.mac1609_4 	ReceivedUnicastPackets 	0
scalar StVehScenario_100_25.node[49].nic.mac1609_4 	ReceivedBroadcasts 	2718
scalar StVehScenario_100_25.node[49].nic.mac1609_4 	SentPackets 	403
scalar StVehScenario_100_25.node[49].nic.mac1609_4 	SNIRLostPackets 	125
scalar StVehScenario_100_25.node[49].nic.mac1609_4 	RXTXLostPackets 	0
scalar StVehScenario_100_25.node[49].nic.mac1609_4 	TotalLostPackets 	125
scalar StVehScenario_100_25.node[49].nic.mac1609_4 	DroppedPacketsInMac 	0
scalar StVehScenario_100_25.node[49].nic.mac1609_4 	TooLittleTime 	0
scalar StVehScenario_100_25.node[49].nic.mac1609_4 	TimesIntoBackoff 	403
scalar StVehScenario_100_25.node[49].nic.mac1609_4 	SlotsBackoff 	584
scalar StVehScenario_100_25.node[49].nic.mac1609_4 	NumInternalContention 	0
scalar StVehScenario_100_25.node[49].nic.mac1609_4 	totalBusyTime 	0.332267
scalar StVehScenario_100_25.node[49].veinsmobility 	startTime 	0.1
scalar StVehScenario_100_25.node[49].veinsmobility 	totalTime 	40.2
scalar StVehScenario_100_25.node[49].veinsmobility 	stopTime 	40.4
scalar StVehScenario_100_25.node[49].veinsmobility 	minSpeed 	0.25376029677177
scalar StVehScenario_100_25.node[49].veinsmobility 	maxSpeed 	13.899256575068
scalar StVehScenario_100_25.node[49].veinsmobility 	totalDistance 	398.32163302747
scalar StVehScenario_100_25.node[49].veinsmobility 	totalCO2Emission 	118.95204456059
scalar StVehScenario_100_25.node[57].appl 	generatedWSMs 	0
scalar StVehScenario_100_25.node[57].appl 	receivedWSMs 	0
scalar StVehScenario_100_25.node[57].appl 	generatedBSMs 	409
scalar StVehScenario_100_25.node[57].appl 	receivedBSMs 	7104
scalar StVehScenario_100_25.node[57].appl 	generatedWSAs 	0
scalar StVehScenario_100_25.node[57].appl 	receivedWSAs 	0
scalar StVehScenario_100_25.node[57].appl 	rmseSUMGPS 	937.67871651733
scalar StVehScenario_100_25.node[57].appl 	rmseSUMCP 	206594.51849635
scalar StVehScenario_100_25.node[57].appl 	delaySum 	0.00046165507500001
scalar StVehScenario_100_25.node[57].nic.phy80211p 	busyTime 	0.018788655256723
scalar StVehScenario_100_25.node[57].nic.mac1609_4 	ReceivedUnicastPackets 	0
scalar StVehScenario_100_25.node[57].nic.mac1609_4 	ReceivedBroadcasts 	7104
scalar StVehScenario_100_25.node[57].nic.mac1609_4 	SentPackets 	409
scalar StVehScenario_100_25.node[57].nic.mac1609_4 	SNIRLostPackets 	285
scalar StVehScenario_100_25.node[57].nic.mac1609_4 	RXTXLostPackets 	0
scalar StVehScenario_100_25.node[57].nic.mac1609_4 	TotalLostPackets 	285
scalar StVehScenario_100_25.node[57].nic.mac1609_4 	DroppedPacketsInMac 	0
scalar StVehScenario_100_25.node[57].nic.mac1609_4 	TooLittleTime 	0
scalar StVehScenario_100_25.node[57].nic.mac1609_4 	TimesIntoBackoff 	409
scalar StVehScenario_100_25.node[57].nic.mac1609_4 	SlotsBackoff 	641
scalar StVehScenario_100_25.node[57].nic.mac1609_4 	NumInternalContention 	0
scalar StVehScenario_100_25.node[57].nic.mac1609_4 	totalBusyTime 	0.790393
scalar StVehScenario_100_25.node[57].veinsmobility 	startTime 	0.1
scalar StVehScenario_100_25.node[57].veinsmobility 	totalTime 	40.8
scalar StVehScenario_100_25.node[57].veinsmobility 	stopTime 	41
scalar StVehScenario_100_25.node[57].veinsmobility 	minSpeed 	0.25813640728849
scalar StVehScenario_100_25.node[57].veinsmobility 	maxSpeed 	13.899673296071
scalar StVehScenario_100_25.node[57].veinsmobility 	totalDistance 	410.17260382312
scalar StVehScenario_100_25.node[57].veinsmobility 	totalCO2Emission 	132.56724782973
scalar StVehScenario_100_25.node[25].appl 	generatedWSMs 	0
scalar StVehScenario_100_25.node[25].appl 	receivedWSMs 	0
scalar StVehScenario_100_25.node[25].appl 	generatedBSMs 	450
scalar StVehScenario_100_25.node[25].appl 	receivedBSMs 	7840
scalar StVehScenario_100_25.node[25].appl 	generatedWSAs 	0
scalar StVehScenario_100_25.node[25].appl 	receivedWSAs 	0
scalar StVehScenario_100_25.node[25].appl 	rmseSUMGPS 	1051.9358347604
scalar StVehScenario_100_25.node[25].appl 	rmseSUMCP 	0
scalar StVehScenario_100_25.node[25].appl 	delaySum 	0.00011031069999999
scalar StVehScenario_100_25.node[25].nic.phy80211p 	busyTime 	0.018662222222221
scalar StVehScenario_100_25.node[25].nic.mac1609_4 	ReceivedUnicastPackets 	0
scalar StVehScenario_100_25.node[25].nic.mac1609_4 	ReceivedBroadcasts 	7840
scalar StVehScenario_100_25.node[25].nic.mac1609_4 	SentPackets 	450
scalar StVehScenario_100_25.node[25].nic.mac1609_4 	SNIRLostPackets 	235
scalar StVehScenario_100_25.node[25].nic.mac1609_4 	RXTXLostPackets 	0
scalar StVehScenario_100_25.node[25].nic.mac1609_4 	TotalLostPackets 	235
scalar StVehScenario_100_25.node[25].nic.mac1609_4 	DroppedPacketsInMac 	0
scalar StVehScenario_100_25.node[25].nic.mac1609_4 	TooLittleTime 	0
scalar StVehScenario_100_25.node[25].nic.mac1609_4 	TimesIntoBackoff 	450
scalar StVehScenario_100_25.node[25].nic.mac1609_4 	SlotsBackoff 	643
scalar StVehScenario_100_25.node[25].nic.mac1609_4 	NumInternalContention 	0
scalar StVehScenario_100_25.node[25].nic.mac1609_4 	totalBusyTime 	0.880394
scalar StVehScenario_100_25.node[25].veinsmobility 	startTime 	0.1
scalar StVehScenario_100_25.node[25].veinsmobility 	totalTime 	44.9
scalar StVehScenario_100_25.node[25].veinsmobility 	stopTime 	45.1
scalar StVehScenario_100_25.node[25].veinsmobility 	minSpeed 	0.25113633612799
scalar StVehScenario_100_25.node[25].veinsmobility 	maxSpeed 	13.899750196666
scalar StVehScenario_100_25.node[25].veinsmobility 	totalDistance 	489.53300292446
scalar StVehScenario_100_25.node[25].veinsmobility 	totalCO2Emission 	144.69930612501
scalar StVehScenario_100_25.node[1].appl 	generatedWSMs 	0
scalar StVehScenario_100_25.node[1].appl 	receivedWSMs 	0
scalar StVehScenario_100_25.node[1].appl 	generatedBSMs 	480
scalar StVehScenario_100_25.node[1].appl 	receivedBSMs 	6018
scalar StVehScenario_100_25.node[1].appl 	generatedWSAs 	0
scalar StVehScenario_100_25.node[1].appl 	receivedWSAs 	0
scalar StVehScenario_100_25.node[1].appl 	rmseSUMGPS 	1156.4694267101
scalar StVehScenario_100_25.node[1].appl 	rmseSUMCP 	87790.210688526
scalar StVehScenario_100_25.node[1].appl 	delaySum 	0.37992353711904
scalar StVehScenario_100_25.node[1].nic.phy80211p 	busyTime 	0.013190666666666
scalar StVehScenario_100_25.node[1].nic.mac1609_4 	ReceivedUnicastPackets 	0
scalar StVehScenario_100_25.node[1].nic.mac1609_4 	ReceivedBroadcasts 	6018
scalar StVehScenario_100_25.node[1].nic.mac1609_4 	SentPackets 	480
scalar StVehScenario_100_25.node[1].nic.mac1609_4 	SNIRLostPackets 	70
scalar StVehScenario_100_25.node[1].nic.mac1609_4 	RXTXLostPackets 	0
scalar StVehScenario_100_25.node[1].nic.mac1609_4 	TotalLostPackets 	70
scalar StVehScenario_100_25.node[1].nic.mac1609_4 	DroppedPacketsInMac 	0
scalar StVehScenario_100_25.node[1].nic.mac1609_4 	TooLittleTime 	0
scalar StVehScenario_100_25.node[1].nic.mac1609_4 	TimesIntoBackoff 	480
scalar StVehScenario_100_25.node[1].nic.mac1609_4 	SlotsBackoff 	705
scalar StVehScenario_100_25.node[1].nic.mac1609_4 	NumInternalContention 	0
scalar StVehScenario_100_25.node[1].nic.mac1609_4 	totalBusyTime 	0.68324
scalar StVehScenario_100_25.node[1].veinsmobility 	startTime 	0.1
scalar StVehScenario_100_25.node[1].veinsmobility 	totalTime 	47.9
scalar StVehScenario_100_25.node[1].veinsmobility 	stopTime 	48.1
scalar StVehScenario_100_25.node[1].veinsmobility 	minSpeed 	0.25042006368702
scalar StVehScenario_100_25.node[1].veinsmobility 	maxSpeed 	13.89904177139
scalar StVehScenario_100_25.node[1].veinsmobility 	totalDistance 	570.52090649202
scalar StVehScenario_100_25.node[1].veinsmobility 	totalCO2Emission 	143.46785046034
scalar StVehScenario_100_25.node[68].appl 	generatedWSMs 	0
scalar StVehScenario_100_25.node[68].appl 	receivedWSMs 	0
scalar StVehScenario_100_25.node[68].appl 	generatedBSMs 	522
scalar StVehScenario_100_25.node[68].appl 	receivedBSMs 	5081
scalar StVehScenario_100_25.node[68].appl 	generatedWSAs 	0
scalar StVehScenario_100_25.node[68].appl 	receivedWSAs 	0
scalar StVehScenario_100_25.node[68].appl 	rmseSUMGPS 	1286.5740078841
scalar StVehScenario_100_25.node[68].appl 	rmseSUMCP 	44210.809660237
scalar StVehScenario_100_25.node[68].appl 	delaySum 	0.58006175202839
scalar StVehScenario_100_25.node[68].nic.phy80211p 	busyTime 	0.010123065134099
scalar StVehScenario_100_25.node[68].nic.mac1609_4 	ReceivedUnicastPackets 	0
scalar StVehScenario_100_25.node[68].nic.mac1609_4 	ReceivedBroadcasts 	5081
scalar StVehScenario_100_25.node[68].nic.mac1609_4 	SentPackets 	522
scalar StVehScenario_100_25.node[68].nic.mac1609_4 	SNIRLostPackets 	0
scalar StVehScenario_100_25.node[68].nic.mac1609_4 	RXTXLostPackets 	0
scalar StVehScenario_100_25.node[68].nic.mac1609_4 	TotalLostPackets 	0
scalar StVehScenario_100_25.node[68].nic.mac1609_4 	DroppedPacketsInMac 	0
scalar StVehScenario_100_25.node[68].nic.mac1609_4 	TooLittleTime 	0
scalar StVehScenario_100_25.node[68].nic.mac1609_4 	TimesIntoBackoff 	522
scalar StVehScenario_100_25.node[68].nic.mac1609_4 	SlotsBackoff 	752
scalar StVehScenario_100_25.node[68].nic.mac1609_4 	NumInternalContention 	0
scalar StVehScenario_100_25.node[68].nic.mac1609_4 	totalBusyTime 	0.583234
scalar StVehScenario_100_25.node[68].veinsmobility 	startTime 	0.1
scalar StVehScenario_100_25.node[68].veinsmobility 	totalTime 	52.1
scalar StVehScenario_100_25.node[68].veinsmobility 	stopTime 	52.3
scalar StVehScenario_100_25.node[68].veinsmobility 	minSpeed 	0.25286542447004
scalar StVehScenario_100_25.node[68].veinsmobility 	maxSpeed 	13.899380110847
scalar StVehScenario_100_25.node[68].veinsmobility 	totalDistance 	625.67690057764
scalar StVehScenario_100_25.node[68].veinsmobility 	totalCO2Emission 	153.84780815416
scalar StVehScenario_100_25.node[69].appl 	generatedWSMs 	0
scalar StVehScenario_100_25.node[69].appl 	receivedWSMs 	0
scalar StVehScenario_100_25.node[69].appl 	generatedBSMs 	540
scalar StVehScenario_100_25.node[69].appl 	receivedBSMs 	5432
scalar StVehScenario_100_25.node[69].appl 	generatedWSAs 	0
scalar StVehScenario_100_25.node[69].appl 	receivedWSAs 	0
scalar StVehScenario_100_25.node[69].appl 	rmseSUMGPS 	1314.7297069328
scalar StVehScenario_100_25.node[69].appl 	rmseSUMCP 	26616.023978433
scalar StVehScenario_100_25.node[69].appl 	delaySum 	0.60802675349916
scalar StVehScenario_100_25.node[69].nic.phy80211p 	busyTime 	0.010500148148148
scalar StVehScenario_100_25.node[69].nic.mac1609_4 	ReceivedUnicastPackets 	0
scalar StVehScenario_100_25.node[69].nic.mac1609_4 	ReceivedBroadcasts 	5432
scalar StVehScenario_100_25.node[69].nic.mac1609_4 	SentPackets 	540
scalar StVehScenario_100_25.node[69].nic.mac1609_4 	SNIRLostPackets 	19
scalar StVehScenario_100_25.node[69].nic.mac1609_4 	RXTXLostPackets 	0
scalar StVehScenario_100_25.node[69].nic.mac1609_4 	TotalLostPackets 	19
scalar StVehScenario_100_25.node[69].nic.mac1609_4 	DroppedPacketsInMac 	0
scalar StVehScenario_100_25.node[69].nic.mac1609_4 	TooLittleTime 	0
scalar StVehScenario_100_25.node[69].nic.mac1609_4 	TimesIntoBackoff 	540
scalar StVehScenario_100_25.node[69].nic.mac1609_4 	SlotsBackoff 	805
scalar StVehScenario_100_25.node[69].nic.mac1609_4 	NumInternalContention 	0
scalar StVehScenario_100_25.node[69].nic.mac1609_4 	totalBusyTime 	0.623604
scalar StVehScenario_100_25.node[69].veinsmobility 	startTime 	0.1
scalar StVehScenario_100_25.node[69].veinsmobility 	totalTime 	53.9
scalar StVehScenario_100_25.node[69].veinsmobility 	stopTime 	54.1
scalar StVehScenario_100_25.node[69].veinsmobility 	minSpeed 	0.0046288088977734
scalar StVehScenario_100_25.node[69].veinsmobility 	maxSpeed 	13.899159593331
scalar StVehScenario_100_25.node[69].veinsmobility 	totalDistance 	586.92927346184
scalar StVehScenario_100_25.node[69].veinsmobility 	totalCO2Emission 	151.43584964668
scalar StVehScenario_100_25.node[47].appl 	generatedWSMs 	0
scalar StVehScenario_100_25.node[47].appl 	receivedWSMs 	0
scalar StVehScenario_100_25.node[47].appl 	generatedBSMs 	578
scalar StVehScenario_100_25.node[47].appl 	receivedBSMs 	3459
scalar StVehScenario_100_25.node[47].appl 	generatedWSAs 	0
scalar StVehScenario_100_25.node[47].appl 	receivedWSAs 	0
scalar StVehScenario_100_25.node[47].appl 	rmseSUMGPS 	1333.6063582678
scalar StVehScenario_100_25.node[47].appl 	rmseSUMCP 	20845.164037113
scalar StVehScenario_100_25.node[47].appl 	delaySum 	0.38758134332297
scalar StVehScenario_100_25.node[47].nic.phy80211p 	busyTime 	0.0065188927335638
scalar StVehScenario_100_25.node[47].nic.mac1609_4 	ReceivedUnicastPackets 	0
scalar StVehScenario_100_25.node[47].nic.mac1609_4 	ReceivedBroadcasts 	3459
scalar StVehScenario_100_25.node[47].nic.mac1609_4 	SentPackets 	578
scalar StVehScenario_100_25.node[47].nic.mac1609_4 	SNIRLostPackets 	164
scalar StVehScenario_100_25.node[47].nic.mac1609_4 	RXTXLostPackets 	0
scalar StVehScenario_100_25.node[47].nic.mac1609_4 	TotalLostPackets 	164
scalar StVehScenario_100_25.node[47].nic.mac1609_4 	DroppedPacketsInMac 	0
scalar StVehScenario_100_25.node[47].nic.mac1609_4 	TooLittleTime 	0
scalar StVehScenario_100_25.node[47].nic.mac1609_4 	TimesIntoBackoff 	578
scalar StVehScenario_100_25.node[47].nic.mac1609_4 	SlotsBackoff 	915
scalar StVehScenario_100_25.node[47].nic.mac1609_4 	NumInternalContention 	0
scalar StVehScenario_100_25.node[47].nic.mac1609_4 	totalBusyTime 	0.437482
scalar StVehScenario_100_25.node[47].veinsmobility 	startTime 	0.1
scalar StVehScenario_100_25.node[47].veinsmobility 	totalTime 	57.7
scalar StVehScenario_100_25.node[47].veinsmobility 	stopTime 	57.9
scalar StVehScenario_100_25.node[47].veinsmobility 	minSpeed 	0.25497564328532
scalar StVehScenario_100_25.node[47].veinsmobility 	maxSpeed 	13.899924988581
scalar StVehScenario_100_25.node[47].veinsmobility 	totalDistance 	705.84766675054
scalar StVehScenario_100_25.node[47].veinsmobility 	totalCO2Emission 	168.14010499249
scalar StVehScenario_100_25.node[67].appl 	generatedWSMs 	0
scalar StVehScenario_100_25.node[67].appl 	receivedWSMs 	0
scalar StVehScenario_100_25.node[67].appl 	generatedBSMs 	588
scalar StVehScenario_100_25.node[67].appl 	receivedBSMs 	9962
scalar StVehScenario_100_25.node[67].appl 	generatedWSAs 	0
scalar StVehScenario_100_25.node[67].appl 	receivedWSAs 	0
scalar StVehScenario_100_25.node[67].appl 	rmseSUMGPS 	1433.0918448422
scalar StVehScenario_100_25.node[67].appl 	rmseSUMCP 	257998.76507424
scalar StVehScenario_100_25.node[67].appl 	delaySum 	0.00055100817000003
scalar StVehScenario_100_25.node[67].nic.phy80211p 	busyTime 	0.017786122448979
scalar StVehScenario_100_25.node[67].nic.mac1609_4 	ReceivedUnicastPackets 	0
scalar StVehScenario_100_25.node[67].nic.mac1609_4 	ReceivedBroadcasts 	9962
scalar StVehScenario_100_25.node[67].nic.mac1609_4 	SentPackets 	588
scalar StVehScenario_100_25.node[67].nic.mac1609_4 	SNIRLostPackets 	94
scalar StVehScenario_100_25.node[67].nic.mac1609_4 	RXTXLostPackets 	0
scalar StVehScenario_100_25.node[67].nic.mac1609_4 	TotalLostPackets 	94
scalar StVehScenario_100_25.node[67].nic.mac1609_4 	DroppedPacketsInMac 	0
scalar StVehScenario_100_25.node[67].nic.mac1609_4 	TooLittleTime 	0
scalar StVehScenario_100_25.node[67].nic.mac1609_4 	TimesIntoBackoff 	588
scalar StVehScenario_100_25.node[67].nic.mac1609_4 	SlotsBackoff 	886
scalar StVehScenario_100_25.node[67].nic.mac1609_4 	NumInternalContention 	0
scalar StVehScenario_100_25.node[67].nic.mac1609_4 	totalBusyTime 	1.107564
scalar StVehScenario_100_25.node[67].veinsmobility 	startTime 	0.1
scalar StVehScenario_100_25.node[67].veinsmobility 	totalTime 	58.7
scalar StVehScenario_100_25.node[67].veinsmobility 	stopTime 	58.9
scalar StVehScenario_100_25.node[67].veinsmobility 	minSpeed 	0.24755698299385
scalar StVehScenario_100_25.node[67].veinsmobility 	maxSpeed 	13.899893932964
scalar StVehScenario_100_25.node[67].veinsmobility 	totalDistance 	717.38038584701
scalar StVehScenario_100_25.node[67].veinsmobility 	totalCO2Emission 	172.71910154349
scalar StVehScenario_100_25.node[16].appl 	generatedWSMs 	0
scalar StVehScenario_100_25.node[16].appl 	receivedWSMs 	0
scalar StVehScenario_100_25.node[16].appl 	generatedBSMs 	592
scalar StVehScenario_100_25.node[16].appl 	receivedBSMs 	4094
scalar StVehScenario_100_25.node[16].appl 	generatedWSAs 	0
scalar StVehScenario_100_25.node[16].appl 	receivedWSAs 	0
scalar StVehScenario_100_25.node[16].appl 	rmseSUMGPS 	1338.2894726619
scalar StVehScenario_100_25.node[16].appl 	rmseSUMCP 	51101.502769402
scalar StVehScenario_100_25.node[16].appl 	delaySum 	0.45812099355896
scalar StVehScenario_100_25.node[16].nic.phy80211p 	busyTime 	0.0073889189189186
scalar StVehScenario_100_25.node[16].nic.mac1609_4 	ReceivedUnicastPackets 	0
scalar StVehScenario_100_25.node[16].nic.mac1609_4 	ReceivedBroadcasts 	4094
scalar StVehScenario_100_25.node[16].nic.mac1609_4 	SentPackets 	592
scalar StVehScenario_100_25.node[16].nic.mac1609_4 	SNIRLostPackets 	112
scalar StVehScenario_100_25.node[16].nic.mac1609_4 	RXTXLostPackets 	0
scalar StVehScenario_100_25.node[16].nic.mac1609_4 	TotalLostPackets 	112
scalar StVehScenario_100_25.node[16].nic.mac1609_4 	DroppedPacketsInMac 	0
scalar StVehScenario_100_25.node[16].nic.mac1609_4 	TooLittleTime 	0
scalar StVehScenario_100_25.node[16].nic.mac1609_4 	TimesIntoBackoff 	592
scalar StVehScenario_100_25.node[16].nic.mac1609_4 	SlotsBackoff 	826
scalar StVehScenario_100_25.node[16].nic.mac1609_4 	NumInternalContention 	0
scalar StVehScenario_100_25.node[16].nic.mac1609_4 	totalBusyTime 	0.499584
scalar StVehScenario_100_25.node[16].veinsmobility 	startTime 	0.1
scalar StVehScenario_100_25.node[16].veinsmobility 	totalTime 	59.1
scalar StVehScenario_100_25.node[16].veinsmobility 	stopTime 	59.3
scalar StVehScenario_100_25.node[16].veinsmobility 	minSpeed 	0.25805422677076
scalar StVehScenario_100_25.node[16].veinsmobility 	maxSpeed 	13.899750396223
scalar StVehScenario_100_25.node[16].veinsmobility 	totalDistance 	729.47728311111
scalar StVehScenario_100_25.node[16].veinsmobility 	totalCO2Emission 	168.0488817435
scalar StVehScenario_100_25.node[17].appl 	generatedWSMs 	0
scalar StVehScenario_100_25.node[17].appl 	receivedWSMs 	0
scalar StVehScenario_100_25.node[17].appl 	generatedBSMs 	596
scalar StVehScenario_100_25.node[17].appl 	receivedBSMs 	2633
scalar StVehScenario_100_25.node[17].appl 	generatedWSAs 	0
scalar StVehScenario_100_25.node[17].appl 	receivedWSAs 	0
scalar StVehScenario_100_25.node[17].appl 	rmseSUMGPS 	1381.4666985266
scalar StVehScenario_100_25.node[17].appl 	rmseSUMCP 	84517.243123408
scalar StVehScenario_100_25.node[17].appl 	delaySum 	0.29510782301891
scalar StVehScenario_100_25.node[17].nic.phy80211p 	busyTime 	0.0047463087248321
scalar StVehScenario_100_25.node[17].nic.mac1609_4 	ReceivedUnicastPackets 	0
scalar StVehScenario_100_25.node[17].nic.mac1609_4 	ReceivedBroadcasts 	2633
scalar StVehScenario_100_25.node[17].nic.mac1609_4 	SentPackets 	596
scalar StVehScenario_100_25.node[17].nic.mac1609_4 	SNIRLostPackets 	87
scalar StVehScenario_100_25.node[17].nic.mac1609_4 	RXTXLostPackets 	0
scalar StVehScenario_100_25.node[17].nic.mac1609_4 	TotalLostPackets 	87
scalar StVehScenario_100_25.node[17].nic.mac1609_4 	DroppedPacketsInMac 	0
scalar StVehScenario_100_25.node[17].nic.mac1609_4 	TooLittleTime 	0
scalar StVehScenario_100_25.node[17].nic.mac1609_4 	TimesIntoBackoff 	596
scalar StVehScenario_100_25.node[17].nic.mac1609_4 	SlotsBackoff 	924
scalar StVehScenario_100_25.node[17].nic.mac1609_4 	NumInternalContention 	0
scalar StVehScenario_100_25.node[17].nic.mac1609_4 	totalBusyTime 	0.340988
scalar StVehScenario_100_25.node[17].veinsmobility 	startTime 	0.1
scalar StVehScenario_100_25.node[17].veinsmobility 	totalTime 	59.5
scalar StVehScenario_100_25.node[17].veinsmobility 	stopTime 	59.7
scalar StVehScenario_100_25.node[17].veinsmobility 	minSpeed 	0.25189367194683
scalar StVehScenario_100_25.node[17].veinsmobility 	maxSpeed 	13.899900360159
scalar StVehScenario_100_25.node[17].veinsmobility 	totalDistance 	778.12814897489
scalar StVehScenario_100_25.node[17].veinsmobility 	totalCO2Emission 	155.12270464124
scalar StVehScenario_100_25.node[61].appl 	generatedWSMs 	0
scalar StVehScenario_100_25.node[61].appl 	receivedWSMs 	0
scalar StVehScenario_100_25.node[61].appl 	generatedBSMs 	618
scalar StVehScenario_100_25.node[61].appl 	receivedBSMs 	2987
scalar StVehScenario_100_25.node[61].appl 	generatedWSAs 	0
scalar StVehScenario_100_25.node[61].appl 	receivedWSAs 	0
scalar StVehScenario_100_25.node[61].appl 	rmseSUMGPS 	1440.8240496762
scalar StVehScenario_100_25.node[61].appl 	rmseSUMCP 	70299.112484384
scalar StVehScenario_100_25.node[61].appl 	delaySum 	0.3340123779257
scalar StVehScenario_100_25.node[61].nic.phy80211p 	busyTime 	0.0050266666666665
scalar StVehScenario_100_25.node[61].nic.mac1609_4 	ReceivedUnicastPackets 	0
scalar StVehScenario_100_25.node[61].nic.mac1609_4 	ReceivedBroadcasts 	2987
scalar StVehScenario_100_25.node[61].nic.mac1609_4 	SentPackets 	618
scalar StVehScenario_100_25.node[61].nic.mac1609_4 	SNIRLostPackets 	0
scalar StVehScenario_100_25.node[61].nic.mac1609_4 	RXTXLostPackets 	0
scalar StVehScenario_100_25.node[61].nic.mac1609_4 	TotalLostPackets 	0
scalar StVehScenario_100_25.node[61].nic.mac1609_4 	DroppedPacketsInMac 	0
scalar StVehScenario_100_25.node[61].nic.mac1609_4 	TooLittleTime 	0
scalar StVehScenario_100_25.node[61].nic.mac1609_4 	TimesIntoBackoff 	618
scalar StVehScenario_100_25.node[61].nic.mac1609_4 	SlotsBackoff 	925
scalar StVehScenario_100_25.node[61].nic.mac1609_4 	NumInternalContention 	0
scalar StVehScenario_100_25.node[61].nic.mac1609_4 	totalBusyTime 	0.375538
scalar StVehScenario_100_25.node[61].veinsmobility 	startTime 	0.1
scalar StVehScenario_100_25.node[61].veinsmobility 	totalTime 	61.7
scalar StVehScenario_100_25.node[61].veinsmobility 	stopTime 	61.9
scalar StVehScenario_100_25.node[61].veinsmobility 	minSpeed 	0.25197985801753
scalar StVehScenario_100_25.node[61].veinsmobility 	maxSpeed 	13.89893168068
scalar StVehScenario_100_25.node[61].veinsmobility 	totalDistance 	721.03789674384
scalar StVehScenario_100_25.node[61].veinsmobility 	totalCO2Emission 	188.62510915246
scalar StVehScenario_100_25.node[55].appl 	generatedWSMs 	0
scalar StVehScenario_100_25.node[55].appl 	receivedWSMs 	0
scalar StVehScenario_100_25.node[55].appl 	generatedBSMs 	628
scalar StVehScenario_100_25.node[55].appl 	receivedBSMs 	4736
scalar StVehScenario_100_25.node[55].appl 	generatedWSAs 	0
scalar StVehScenario_100_25.node[55].appl 	receivedWSAs 	0
scalar StVehScenario_100_25.node[55].appl 	rmseSUMGPS 	1502.4161632668
scalar StVehScenario_100_25.node[55].appl 	rmseSUMCP 	48865.693791819
scalar StVehScenario_100_25.node[55].appl 	delaySum 	0.55138983758296
scalar StVehScenario_100_25.node[55].nic.phy80211p 	busyTime 	0.0082140127388532
scalar StVehScenario_100_25.node[55].nic.mac1609_4 	ReceivedUnicastPackets 	0
scalar StVehScenario_100_25.node[55].nic.mac1609_4 	ReceivedBroadcasts 	4736
scalar StVehScenario_100_25.node[55].nic.mac1609_4 	SentPackets 	628
scalar StVehScenario_100_25.node[55].nic.mac1609_4 	SNIRLostPackets 	224
scalar StVehScenario_100_25.node[55].nic.mac1609_4 	RXTXLostPackets 	0
scalar StVehScenario_100_25.node[55].nic.mac1609_4 	TotalLostPackets 	224
scalar StVehScenario_100_25.node[55].nic.mac1609_4 	DroppedPacketsInMac 	0
scalar StVehScenario_100_25.node[55].nic.mac1609_4 	TooLittleTime 	0
scalar StVehScenario_100_25.node[55].nic.mac1609_4 	TimesIntoBackoff 	628
scalar StVehScenario_100_25.node[55].nic.mac1609_4 	SlotsBackoff 	990
scalar StVehScenario_100_25.node[55].nic.mac1609_4 	NumInternalContention 	0
scalar StVehScenario_100_25.node[55].nic.mac1609_4 	totalBusyTime 	0.578244
scalar StVehScenario_100_25.node[55].veinsmobility 	startTime 	0.1
scalar StVehScenario_100_25.node[55].veinsmobility 	totalTime 	62.7
scalar StVehScenario_100_25.node[55].veinsmobility 	stopTime 	62.9
scalar StVehScenario_100_25.node[55].veinsmobility 	minSpeed 	0.24970757456543
scalar StVehScenario_100_25.node[55].veinsmobility 	maxSpeed 	13.899736111823
scalar StVehScenario_100_25.node[55].veinsmobility 	totalDistance 	718.43230751081
scalar StVehScenario_100_25.node[55].veinsmobility 	totalCO2Emission 	175.54778097444
scalar StVehScenario_100_25.node[29].appl 	generatedWSMs 	0
scalar StVehScenario_100_25.node[29].appl 	receivedWSMs 	0
scalar StVehScenario_100_25.node[29].appl 	generatedBSMs 	639
scalar StVehScenario_100_25.node[29].appl 	receivedBSMs 	5200
scalar StVehScenario_100_25.node[29].appl 	generatedWSAs 	0
scalar StVehScenario_100_25.node[29].appl 	receivedWSAs 	0
scalar StVehScenario_100_25.node[29].appl 	rmseSUMGPS 	1538.1865298387
scalar StVehScenario_100_25.node[29].appl 	rmseSUMCP 	57377.998323087
scalar StVehScenario_100_25.node[29].appl 	delaySum 	0.58169247583072
scalar StVehScenario_100_25.node[29].nic.phy80211p 	busyTime 	0.0090117057902969
scalar StVehScenario_100_25.node[29].nic.mac1609_4 	ReceivedUnicastPackets 	0
scalar StVehScenario_100_25.node[29].nic.mac1609_4 	ReceivedBroadcasts 	5200
scalar StVehScenario_100_25.node[29].nic.mac1609_4 	SentPackets 	639
scalar StVehScenario_100_25.node[29].nic.mac1609_4 	SNIRLostPackets 	336
scalar StVehScenario_100_25.node[29].nic.mac1609_4 	RXTXLostPackets 	0
scalar StVehScenario_100_25.node[29].nic.mac1609_4 	TotalLostPackets 	336
scalar StVehScenario_100_25.node[29].nic.mac1609_4 	DroppedPacketsInMac 	0
scalar StVehScenario_100_25.node[29].nic.mac1609_4 	TooLittleTime 	0
scalar StVehScenario_100_25.node[29].nic.mac1609_4 	TimesIntoBackoff 	639
scalar StVehScenario_100_25.node[29].nic.mac1609_4 	SlotsBackoff 	957
scalar StVehScenario_100_25.node[29].nic.mac1609_4 	NumInternalContention 	0
scalar StVehScenario_100_25.node[29].nic.mac1609_4 	totalBusyTime 	0.627031
scalar StVehScenario_100_25.node[29].veinsmobility 	startTime 	0.1
scalar StVehScenario_100_25.node[29].veinsmobility 	totalTime 	63.8
scalar StVehScenario_100_25.node[29].veinsmobility 	stopTime 	64
scalar StVehScenario_100_25.node[29].veinsmobility 	minSpeed 	0.24898572741565
scalar StVehScenario_100_25.node[29].veinsmobility 	maxSpeed 	13.899895664898
scalar StVehScenario_100_25.node[29].veinsmobility 	totalDistance 	751.67921185571
scalar StVehScenario_100_25.node[29].veinsmobility 	totalCO2Emission 	190.85671838524
scalar StVehScenario_100_25.node[81].appl 	generatedWSMs 	0
scalar StVehScenario_100_25.node[81].appl 	receivedWSMs 	0
scalar StVehScenario_100_25.node[81].appl 	generatedBSMs 	649
scalar StVehScenario_100_25.node[81].appl 	receivedBSMs 	2934
scalar StVehScenario_100_25.node[81].appl 	generatedWSAs 	0
scalar StVehScenario_100_25.node[81].appl 	receivedWSAs 	0
scalar StVehScenario_100_25.node[81].appl 	rmseSUMGPS 	1550.1163496984
scalar StVehScenario_100_25.node[81].appl 	rmseSUMCP 	89085.197228777
scalar StVehScenario_100_25.node[81].appl 	delaySum 	0.32901560320201
scalar StVehScenario_100_25.node[81].nic.phy80211p 	busyTime 	0.0048250231124806
scalar StVehScenario_100_25.node[81].nic.mac1609_4 	ReceivedUnicastPackets 	0
scalar StVehScenario_100_25.node[81].nic.mac1609_4 	ReceivedBroadcasts 	2934
scalar StVehScenario_100_25.node[81].nic.mac1609_4 	SentPackets 	649
scalar StVehScenario_100_25.node[81].nic.mac1609_4 	SNIRLostPackets 	77
scalar StVehScenario_100_25.node[81].nic.mac1609_4 	RXTXLostPackets 	0
scalar StVehScenario_100_25.node[81].nic.mac1609_4 	TotalLostPackets 	77
scalar StVehScenario_100_25.node[81].nic.mac1609_4 	DroppedPacketsInMac 	0
scalar StVehScenario_100_25.node[81].nic.mac1609_4 	TooLittleTime 	0
scalar StVehScenario_100_25.node[81].nic.mac1609_4 	TimesIntoBackoff 	649
scalar StVehScenario_100_25.node[81].nic.mac1609_4 	SlotsBackoff 	953
scalar StVehScenario_100_25.node[81].nic.mac1609_4 	NumInternalContention 	0
scalar StVehScenario_100_25.node[81].nic.mac1609_4 	totalBusyTime 	0.377545
scalar StVehScenario_100_25.node[81].veinsmobility 	startTime 	1.1
scalar StVehScenario_100_25.node[81].veinsmobility 	totalTime 	64.8
scalar StVehScenario_100_25.node[81].veinsmobility 	stopTime 	66
scalar StVehScenario_100_25.node[81].veinsmobility 	minSpeed 	0.25245802764641
scalar StVehScenario_100_25.node[81].veinsmobility 	maxSpeed 	13.899757535411
scalar StVehScenario_100_25.node[81].veinsmobility 	totalDistance 	809.2911018386
scalar StVehScenario_100_25.node[81].veinsmobility 	totalCO2Emission 	183.97553242085
scalar StVehScenario_100_25.node[4].appl 	generatedWSMs 	0
scalar StVehScenario_100_25.node[4].appl 	receivedWSMs 	0
scalar StVehScenario_100_25.node[4].appl 	generatedBSMs 	675
scalar StVehScenario_100_25.node[4].appl 	receivedBSMs 	2237
scalar StVehScenario_100_25.node[4].appl 	generatedWSAs 	0
scalar StVehScenario_100_25.node[4].appl 	receivedWSAs 	0
scalar StVehScenario_100_25.node[4].appl 	rmseSUMGPS 	1680.2615070003
scalar StVehScenario_100_25.node[4].appl 	rmseSUMCP 	59314.633685606
scalar StVehScenario_100_25.node[4].appl 	delaySum 	0.25014134269402
scalar StVehScenario_100_25.node[4].nic.phy80211p 	busyTime 	0.0034481777777777
scalar StVehScenario_100_25.node[4].nic.mac1609_4 	ReceivedUnicastPackets 	0
scalar StVehScenario_100_25.node[4].nic.mac1609_4 	ReceivedBroadcasts 	2237
scalar StVehScenario_100_25.node[4].nic.mac1609_4 	SentPackets 	675
scalar StVehScenario_100_25.node[4].nic.mac1609_4 	SNIRLostPackets 	1
scalar StVehScenario_100_25.node[4].nic.mac1609_4 	RXTXLostPackets 	0
scalar StVehScenario_100_25.node[4].nic.mac1609_4 	TotalLostPackets 	1
scalar StVehScenario_100_25.node[4].nic.mac1609_4 	DroppedPacketsInMac 	0
scalar StVehScenario_100_25.node[4].nic.mac1609_4 	TooLittleTime 	0
scalar StVehScenario_100_25.node[4].nic.mac1609_4 	TimesIntoBackoff 	675
scalar StVehScenario_100_25.node[4].nic.mac1609_4 	SlotsBackoff 	1026
scalar StVehScenario_100_25.node[4].nic.mac1609_4 	NumInternalContention 	0
scalar StVehScenario_100_25.node[4].nic.mac1609_4 	totalBusyTime 	0.303627
scalar StVehScenario_100_25.node[4].veinsmobility 	startTime 	0.1
scalar StVehScenario_100_25.node[4].veinsmobility 	totalTime 	67.4
scalar StVehScenario_100_25.node[4].veinsmobility 	stopTime 	67.6
scalar StVehScenario_100_25.node[4].veinsmobility 	minSpeed 	0.25384309547977
scalar StVehScenario_100_25.node[4].veinsmobility 	maxSpeed 	13.899640390808
scalar StVehScenario_100_25.node[4].veinsmobility 	totalDistance 	747.91492330761
scalar StVehScenario_100_25.node[4].veinsmobility 	totalCO2Emission 	213.78341188342
scalar StVehScenario_100_25.node[44].appl 	generatedWSMs 	0
scalar StVehScenario_100_25.node[44].appl 	receivedWSMs 	0
scalar StVehScenario_100_25.node[44].appl 	generatedBSMs 	681
scalar StVehScenario_100_25.node[44].appl 	receivedBSMs 	7121
scalar StVehScenario_100_25.node[44].appl 	generatedWSAs 	0
scalar StVehScenario_100_25.node[44].appl 	receivedWSAs 	0
scalar StVehScenario_100_25.node[44].appl 	rmseSUMGPS 	1574.3505838465
scalar StVehScenario_100_25.node[44].appl 	rmseSUMCP 	52276.678170834
scalar StVehScenario_100_25.node[44].appl 	delaySum 	0.79730053658864
scalar StVehScenario_100_25.node[44].nic.phy80211p 	busyTime 	0.011533157121879
scalar StVehScenario_100_25.node[44].nic.mac1609_4 	ReceivedUnicastPackets 	0
scalar StVehScenario_100_25.node[44].nic.mac1609_4 	ReceivedBroadcasts 	7121
scalar StVehScenario_100_25.node[44].nic.mac1609_4 	SentPackets 	681
scalar StVehScenario_100_25.node[44].nic.mac1609_4 	SNIRLostPackets 	430
scalar StVehScenario_100_25.node[44].nic.mac1609_4 	RXTXLostPackets 	0
scalar StVehScenario_100_25.node[44].nic.mac1609_4 	TotalLostPackets 	430
scalar StVehScenario_100_25.node[44].nic.mac1609_4 	DroppedPacketsInMac 	0
scalar StVehScenario_100_25.node[44].nic.mac1609_4 	TooLittleTime 	0
scalar StVehScenario_100_25.node[44].nic.mac1609_4 	TimesIntoBackoff 	681
scalar StVehScenario_100_25.node[44].nic.mac1609_4 	SlotsBackoff 	1020
scalar StVehScenario_100_25.node[44].nic.mac1609_4 	NumInternalContention 	0
scalar StVehScenario_100_25.node[44].nic.mac1609_4 	totalBusyTime 	0.837153
scalar StVehScenario_100_25.node[44].veinsmobility 	startTime 	0.1
scalar StVehScenario_100_25.node[44].veinsmobility 	totalTime 	68
scalar StVehScenario_100_25.node[44].veinsmobility 	stopTime 	68.2
scalar StVehScenario_100_25.node[44].veinsmobility 	minSpeed 	0.24988396216044
scalar StVehScenario_100_25.node[44].veinsmobility 	maxSpeed 	13.899926031071
scalar StVehScenario_100_25.node[44].veinsmobility 	totalDistance 	804.8447263319
scalar StVehScenario_100_25.node[44].veinsmobility 	totalCO2Emission 	204.6608801929
scalar StVehScenario_100_25.node[21].appl 	generatedWSMs 	0
scalar StVehScenario_100_25.node[21].appl 	receivedWSMs 	0
scalar StVehScenario_100_25.node[21].appl 	generatedBSMs 	706
scalar StVehScenario_100_25.node[21].appl 	receivedBSMs 	9499
scalar StVehScenario_100_25.node[21].appl 	generatedWSAs 	0
scalar StVehScenario_100_25.node[21].appl 	receivedWSAs 	0
scalar StVehScenario_100_25.node[21].appl 	rmseSUMGPS 	1660.0953581011
scalar StVehScenario_100_25.node[21].appl 	rmseSUMCP 	18413.784429609
scalar StVehScenario_100_25.node[21].appl 	delaySum 	0.064552614095971
scalar StVehScenario_100_25.node[21].nic.phy80211p 	busyTime 	0.014297790368271
scalar StVehScenario_100_25.node[21].nic.mac1609_4 	ReceivedUnicastPackets 	0
scalar StVehScenario_100_25.node[21].nic.mac1609_4 	ReceivedBroadcasts 	9499
scalar StVehScenario_100_25.node[21].nic.mac1609_4 	SentPackets 	706
scalar StVehScenario_100_25.node[21].nic.mac1609_4 	SNIRLostPackets 	207
scalar StVehScenario_100_25.node[21].nic.mac1609_4 	RXTXLostPackets 	0
scalar StVehScenario_100_25.node[21].nic.mac1609_4 	TotalLostPackets 	207
scalar StVehScenario_100_25.node[21].nic.mac1609_4 	DroppedPacketsInMac 	0
scalar StVehScenario_100_25.node[21].nic.mac1609_4 	TooLittleTime 	0
scalar StVehScenario_100_25.node[21].nic.mac1609_4 	TimesIntoBackoff 	706
scalar StVehScenario_100_25.node[21].nic.mac1609_4 	SlotsBackoff 	1015
scalar StVehScenario_100_25.node[21].nic.mac1609_4 	NumInternalContention 	0
scalar StVehScenario_100_25.node[21].nic.mac1609_4 	totalBusyTime 	1.08033
scalar StVehScenario_100_25.node[21].veinsmobility 	startTime 	0.1
scalar StVehScenario_100_25.node[21].veinsmobility 	totalTime 	70.5
scalar StVehScenario_100_25.node[21].veinsmobility 	stopTime 	70.7
scalar StVehScenario_100_25.node[21].veinsmobility 	minSpeed 	0.24961093867011
scalar StVehScenario_100_25.node[21].veinsmobility 	maxSpeed 	13.899782709777
scalar StVehScenario_100_25.node[21].veinsmobility 	totalDistance 	838.94623828287
scalar StVehScenario_100_25.node[21].veinsmobility 	totalCO2Emission 	207.82128133523
scalar StVehScenario_100_25.node[18].appl 	generatedWSMs 	0
scalar StVehScenario_100_25.node[18].appl 	receivedWSMs 	0
scalar StVehScenario_100_25.node[18].appl 	generatedBSMs 	738
scalar StVehScenario_100_25.node[18].appl 	receivedBSMs 	9359
scalar StVehScenario_100_25.node[18].appl 	generatedWSAs 	0
scalar StVehScenario_100_25.node[18].appl 	receivedWSAs 	0
scalar StVehScenario_100_25.node[18].appl 	rmseSUMGPS 	1784.9076507476
scalar StVehScenario_100_25.node[18].appl 	rmseSUMCP 	223763.77377988
scalar StVehScenario_100_25.node[18].appl 	delaySum 	0.49610456381313
scalar StVehScenario_100_25.node[18].nic.phy80211p 	busyTime 	0.013517181571815
scalar StVehScenario_100_25.node[18].nic.mac1609_4 	ReceivedUnicastPackets 	0
scalar StVehScenario_100_25.node[18].nic.mac1609_4 	ReceivedBroadcasts 	9359
scalar StVehScenario_100_25.node[18].nic.mac1609_4 	SentPackets 	738
scalar StVehScenario_100_25.node[18].nic.mac1609_4 	SNIRLostPackets 	233
scalar StVehScenario_100_25.node[18].nic.mac1609_4 	RXTXLostPackets 	0
scalar StVehScenario_100_25.node[18].nic.mac1609_4 	TotalLostPackets 	233
scalar StVehScenario_100_25.node[18].nic.mac1609_4 	DroppedPacketsInMac 	0
scalar StVehScenario_100_25.node[18].nic.mac1609_4 	TooLittleTime 	0
scalar StVehScenario_100_25.node[18].nic.mac1609_4 	TimesIntoBackoff 	738
scalar StVehScenario_100_25.node[18].nic.mac1609_4 	SlotsBackoff 	1166
scalar StVehScenario_100_25.node[18].nic.mac1609_4 	NumInternalContention 	0
scalar StVehScenario_100_25.node[18].nic.mac1609_4 	totalBusyTime 	1.065802
scalar StVehScenario_100_25.node[18].veinsmobility 	startTime 	0.1
scalar StVehScenario_100_25.node[18].veinsmobility 	totalTime 	73.7
scalar StVehScenario_100_25.node[18].veinsmobility 	stopTime 	73.9
scalar StVehScenario_100_25.node[18].veinsmobility 	minSpeed 	0.2538431945045
scalar StVehScenario_100_25.node[18].veinsmobility 	maxSpeed 	13.899881321082
scalar StVehScenario_100_25.node[18].veinsmobility 	totalDistance 	839.38013099253
scalar StVehScenario_100_25.node[18].veinsmobility 	totalCO2Emission 	229.82548272982
scalar StVehScenario_100_25.node[92].appl 	generatedWSMs 	0
scalar StVehScenario_100_25.node[92].appl 	receivedWSMs 	0
scalar StVehScenario_100_25.node[92].appl 	generatedBSMs 	726
scalar StVehScenario_100_25.node[92].appl 	receivedBSMs 	9235
scalar StVehScenario_100_25.node[92].appl 	generatedWSAs 	0
scalar StVehScenario_100_25.node[92].appl 	receivedWSAs 	0
scalar StVehScenario_100_25.node[92].appl 	rmseSUMGPS 	1690.8011808932
scalar StVehScenario_100_25.node[92].appl 	rmseSUMCP 	260291.28298237
scalar StVehScenario_100_25.node[92].appl 	delaySum 	0.23628465456797
scalar StVehScenario_100_25.node[92].nic.phy80211p 	busyTime 	0.013767823691459
scalar StVehScenario_100_25.node[92].nic.mac1609_4 	ReceivedUnicastPackets 	0
scalar StVehScenario_100_25.node[92].nic.mac1609_4 	ReceivedBroadcasts 	9235
scalar StVehScenario_100_25.node[92].nic.mac1609_4 	SentPackets 	726
scalar StVehScenario_100_25.node[92].nic.mac1609_4 	SNIRLostPackets 	376
scalar StVehScenario_100_25.node[92].nic.mac1609_4 	RXTXLostPackets 	0
scalar StVehScenario_100_25.node[92].nic.mac1609_4 	TotalLostPackets 	376
scalar StVehScenario_100_25.node[92].nic.mac1609_4 	DroppedPacketsInMac 	0
scalar StVehScenario_100_25.node[92].nic.mac1609_4 	TooLittleTime 	0
scalar StVehScenario_100_25.node[92].nic.mac1609_4 	TimesIntoBackoff 	726
scalar StVehScenario_100_25.node[92].nic.mac1609_4 	SlotsBackoff 	1057
scalar StVehScenario_100_25.node[92].nic.mac1609_4 	NumInternalContention 	0
scalar StVehScenario_100_25.node[92].nic.mac1609_4 	totalBusyTime 	1.067558
scalar StVehScenario_100_25.node[92].veinsmobility 	startTime 	2.8
scalar StVehScenario_100_25.node[92].veinsmobility 	totalTime 	72.5
scalar StVehScenario_100_25.node[92].veinsmobility 	stopTime 	75.4
scalar StVehScenario_100_25.node[92].veinsmobility 	minSpeed 	0.25666201841133
scalar StVehScenario_100_25.node[92].veinsmobility 	maxSpeed 	13.899684227989
scalar StVehScenario_100_25.node[92].veinsmobility 	totalDistance 	861.33703814737
scalar StVehScenario_100_25.node[92].veinsmobility 	totalCO2Emission 	212.16556016184
scalar StVehScenario_100_25.node[54].appl 	generatedWSMs 	0
scalar StVehScenario_100_25.node[54].appl 	receivedWSMs 	0
scalar StVehScenario_100_25.node[54].appl 	generatedBSMs 	761
scalar StVehScenario_100_25.node[54].appl 	receivedBSMs 	6880
scalar StVehScenario_100_25.node[54].appl 	generatedWSAs 	0
scalar StVehScenario_100_25.node[54].appl 	receivedWSAs 	0
scalar StVehScenario_100_25.node[54].appl 	rmseSUMGPS 	1814.4029234883
scalar StVehScenario_100_25.node[54].appl 	rmseSUMCP 	58348.073763518
scalar StVehScenario_100_25.node[54].appl 	delaySum 	0.77656011343756
scalar StVehScenario_100_25.node[54].nic.phy80211p 	busyTime 	0.0095704599211559
scalar StVehScenario_100_25.node[54].nic.mac1609_4 	ReceivedUnicastPackets 	0
scalar StVehScenario_100_25.node[54].nic.mac1609_4 	ReceivedBroadcasts 	6880
scalar StVehScenario_100_25.node[54].nic.mac1609_4 	SentPackets 	761
scalar StVehScenario_100_25.node[54].nic.mac1609_4 	SNIRLostPackets 	122
scalar StVehScenario_100_25.node[54].nic.mac1609_4 	RXTXLostPackets 	0
scalar StVehScenario_100_25.node[54].nic.mac1609_4 	TotalLostPackets 	122
scalar StVehScenario_100_25.node[54].nic.mac1609_4 	DroppedPacketsInMac 	0
scalar StVehScenario_100_25.node[54].nic.mac1609_4 	TooLittleTime 	0
scalar StVehScenario_100_25.node[54].nic.mac1609_4 	TimesIntoBackoff 	761
scalar StVehScenario_100_25.node[54].nic.mac1609_4 	SlotsBackoff 	1119
scalar StVehScenario_100_25.node[54].nic.mac1609_4 	NumInternalContention 	0
scalar StVehScenario_100_25.node[54].nic.mac1609_4 	totalBusyTime 	0.801977
scalar StVehScenario_100_25.node[54].veinsmobility 	startTime 	0.1
scalar StVehScenario_100_25.node[54].veinsmobility 	totalTime 	76
scalar StVehScenario_100_25.node[54].veinsmobility 	stopTime 	76.2
scalar StVehScenario_100_25.node[54].veinsmobility 	minSpeed 	0.25261035867175
scalar StVehScenario_100_25.node[54].veinsmobility 	maxSpeed 	13.899759708501
scalar StVehScenario_100_25.node[54].veinsmobility 	totalDistance 	914.48558115636
scalar StVehScenario_100_25.node[54].veinsmobility 	totalCO2Emission 	220.93316060825
scalar StVehScenario_100_25.node[10].appl 	generatedWSMs 	0
scalar StVehScenario_100_25.node[10].appl 	receivedWSMs 	0
scalar StVehScenario_100_25.node[10].appl 	generatedBSMs 	769
scalar StVehScenario_100_25.node[10].appl 	receivedBSMs 	6928
scalar StVehScenario_100_25.node[10].appl 	generatedWSAs 	0
scalar StVehScenario_100_25.node[10].appl 	receivedWSAs 	0
scalar StVehScenario_100_25.node[10].appl 	rmseSUMGPS 	1794.14282969
scalar StVehScenario_100_25.node[10].appl 	rmseSUMCP 	87570.644485072
scalar StVehScenario_100_25.node[10].appl 	delaySum 	0.79294716007597
scalar StVehScenario_100_25.node[10].nic.phy80211p 	busyTime 	0.0097075682704807
scalar StVehScenario_100_25.node[10].nic.mac1609_4 	ReceivedUnicastPackets 	0
scalar StVehScenario_100_25.node[10].nic.mac1609_4 	ReceivedBroadcasts 	6928
scalar StVehScenario_100_25.node[10].nic.mac1609_4 	SentPackets 	769
scalar StVehScenario_100_25.node[10].nic.mac1609_4 	SNIRLostPackets 	250
scalar StVehScenario_100_25.node[10].nic.mac1609_4 	RXTXLostPackets 	0
scalar StVehScenario_100_25.node[10].nic.mac1609_4 	TotalLostPackets 	250
scalar StVehScenario_100_25.node[10].nic.mac1609_4 	DroppedPacketsInMac 	0
scalar StVehScenario_100_25.node[10].nic.mac1609_4 	TooLittleTime 	0
scalar StVehScenario_100_25.node[10].nic.mac1609_4 	TimesIntoBackoff 	769
scalar StVehScenario_100_25.node[10].nic.mac1609_4 	SlotsBackoff 	1127
scalar StVehScenario_100_25.node[10].nic.mac1609_4 	NumInternalContention 	0
scalar StVehScenario_100_25.node[10].nic.mac1609_4 	totalBusyTime 	0.822889
scalar StVehScenario_100_25.node[10].veinsmobility 	startTime 	0.1
scalar StVehScenario_100_25.node[10].veinsmobility 	totalTime 	76.8
scalar StVehScenario_100_25.node[10].veinsmobility 	stopTime 	77
scalar StVehScenario_100_25.node[10].veinsmobility 	minSpeed 	0.25216407618509
scalar StVehScenario_100_25.node[10].veinsmobility 	maxSpeed 	13.899899287522
scalar StVehScenario_100_25.node[10].veinsmobility 	totalDistance 	838.93602004799
scalar StVehScenario_100_25.node[10].veinsmobility 	totalCO2Emission 	248.13306179841
scalar StVehScenario_100_25.node[96].appl 	generatedWSMs 	0
scalar StVehScenario_100_25.node[96].appl 	receivedWSMs 	0
scalar StVehScenario_100_25.node[96].appl 	generatedBSMs 	760
scalar StVehScenario_100_25.node[96].appl 	receivedBSMs 	9463
scalar StVehScenario_100_25.node[96].appl 	generatedWSAs 	0
scalar StVehScenario_100_25.node[96].appl 	receivedWSAs 	0
scalar StVehScenario_100_25.node[96].appl 	rmseSUMGPS 	1785.7762538741
scalar StVehScenario_100_25.node[96].appl 	rmseSUMCP 	264748.80645902
scalar StVehScenario_100_25.node[96].appl 	delaySum 	0.097145077889001
scalar StVehScenario_100_25.node[96].nic.phy80211p 	busyTime 	0.013385894736842
scalar StVehScenario_100_25.node[96].nic.mac1609_4 	ReceivedUnicastPackets 	0
scalar StVehScenario_100_25.node[96].nic.mac1609_4 	ReceivedBroadcasts 	9463
scalar StVehScenario_100_25.node[96].nic.mac1609_4 	SentPackets 	760
scalar StVehScenario_100_25.node[96].nic.mac1609_4 	SNIRLostPackets 	319
scalar StVehScenario_100_25.node[96].nic.mac1609_4 	RXTXLostPackets 	0
scalar StVehScenario_100_25.node[96].nic.mac1609_4 	TotalLostPackets 	319
scalar StVehScenario_100_25.node[96].nic.mac1609_4 	DroppedPacketsInMac 	0
scalar StVehScenario_100_25.node[96].nic.mac1609_4 	TooLittleTime 	0
scalar StVehScenario_100_25.node[96].nic.mac1609_4 	TimesIntoBackoff 	760
scalar StVehScenario_100_25.node[96].nic.mac1609_4 	SlotsBackoff 	1151
scalar StVehScenario_100_25.node[96].nic.mac1609_4 	NumInternalContention 	0
scalar StVehScenario_100_25.node[96].nic.mac1609_4 	totalBusyTime 	1.083192
scalar StVehScenario_100_25.node[96].veinsmobility 	startTime 	2.8
scalar StVehScenario_100_25.node[96].veinsmobility 	totalTime 	75.9
scalar StVehScenario_100_25.node[96].veinsmobility 	stopTime 	78.8
scalar StVehScenario_100_25.node[96].veinsmobility 	minSpeed 	0.25527473710757
scalar StVehScenario_100_25.node[96].veinsmobility 	maxSpeed 	13.899942976178
scalar StVehScenario_100_25.node[96].veinsmobility 	totalDistance 	869.00355518712
scalar StVehScenario_100_25.node[96].veinsmobility 	totalCO2Emission 	234.41407529984
scalar StVehScenario_100_25.node[85].appl 	generatedWSMs 	0
scalar StVehScenario_100_25.node[85].appl 	receivedWSMs 	0
scalar StVehScenario_100_25.node[85].appl 	generatedBSMs 	770
scalar StVehScenario_100_25.node[85].appl 	receivedBSMs 	13554
scalar StVehScenario_100_25.node[85].appl 	generatedWSAs 	0
scalar StVehScenario_100_25.node[85].appl 	receivedWSAs 	0
scalar StVehScenario_100_25.node[85].appl 	rmseSUMGPS 	1790.8623460335
scalar StVehScenario_100_25.node[85].appl 	rmseSUMCP 	61535.111118255
scalar StVehScenario_100_25.node[85].appl 	delaySum 	0.17684186806198
scalar StVehScenario_100_25.node[85].nic.phy80211p 	busyTime 	0.0187091948052
scalar StVehScenario_100_25.node[85].nic.mac1609_4 	ReceivedUnicastPackets 	0
scalar StVehScenario_100_25.node[85].nic.mac1609_4 	ReceivedBroadcasts 	13554
scalar StVehScenario_100_25.node[85].nic.mac1609_4 	SentPackets 	770
scalar StVehScenario_100_25.node[85].nic.mac1609_4 	SNIRLostPackets 	298
scalar StVehScenario_100_25.node[85].nic.mac1609_4 	RXTXLostPackets 	0
scalar StVehScenario_100_25.node[85].nic.mac1609_4 	TotalLostPackets 	298
scalar StVehScenario_100_25.node[85].nic.mac1609_4 	DroppedPacketsInMac 	0
scalar StVehScenario_100_25.node[85].nic.mac1609_4 	TooLittleTime 	0
scalar StVehScenario_100_25.node[85].nic.mac1609_4 	TimesIntoBackoff 	1088
scalar StVehScenario_100_25.node[85].nic.mac1609_4 	SlotsBackoff 	1721
scalar StVehScenario_100_25.node[85].nic.mac1609_4 	NumInternalContention 	0
scalar StVehScenario_100_25.node[85].nic.mac1609_4 	totalBusyTime 	1.506794
scalar StVehScenario_100_25.node[85].veinsmobility 	startTime 	2.7
scalar StVehScenario_100_25.node[85].veinsmobility 	totalTime 	76.9
scalar StVehScenario_100_25.node[85].veinsmobility 	stopTime 	79.7
scalar StVehScenario_100_25.node[85].veinsmobility 	minSpeed 	0.24923409408284
scalar StVehScenario_100_25.node[85].veinsmobility 	maxSpeed 	13.899855375034
scalar StVehScenario_100_25.node[85].veinsmobility 	totalDistance 	969.69544503813
scalar StVehScenario_100_25.node[85].veinsmobility 	totalCO2Emission 	209.72596206904
scalar StVehScenario_100_25.node[59].appl 	generatedWSMs 	0
scalar StVehScenario_100_25.node[59].appl 	receivedWSMs 	0
scalar StVehScenario_100_25.node[59].appl 	generatedBSMs 	805
scalar StVehScenario_100_25.node[59].appl 	receivedBSMs 	8562
scalar StVehScenario_100_25.node[59].appl 	generatedWSAs 	0
scalar StVehScenario_100_25.node[59].appl 	receivedWSAs 	0
scalar StVehScenario_100_25.node[59].appl 	rmseSUMGPS 	1932.0253064136
scalar StVehScenario_100_25.node[59].appl 	rmseSUMCP 	64860.64434907
scalar StVehScenario_100_25.node[59].appl 	delaySum 	0.96287790687434
scalar StVehScenario_100_25.node[59].nic.phy80211p 	busyTime 	0.011251378881987
scalar StVehScenario_100_25.node[59].nic.mac1609_4 	ReceivedUnicastPackets 	0
scalar StVehScenario_100_25.node[59].nic.mac1609_4 	ReceivedBroadcasts 	8562
scalar StVehScenario_100_25.node[59].nic.mac1609_4 	SentPackets 	805
scalar StVehScenario_100_25.node[59].nic.mac1609_4 	SNIRLostPackets 	147
scalar StVehScenario_100_25.node[59].nic.mac1609_4 	RXTXLostPackets 	0
scalar StVehScenario_100_25.node[59].nic.mac1609_4 	TotalLostPackets 	147
scalar StVehScenario_100_25.node[59].nic.mac1609_4 	DroppedPacketsInMac 	0
scalar StVehScenario_100_25.node[59].nic.mac1609_4 	TooLittleTime 	0
scalar StVehScenario_100_25.node[59].nic.mac1609_4 	TimesIntoBackoff 	805
scalar StVehScenario_100_25.node[59].nic.mac1609_4 	SlotsBackoff 	1195
scalar StVehScenario_100_25.node[59].nic.mac1609_4 	NumInternalContention 	0
scalar StVehScenario_100_25.node[59].nic.mac1609_4 	totalBusyTime 	0.981213
scalar StVehScenario_100_25.node[59].veinsmobility 	startTime 	0.1
scalar StVehScenario_100_25.node[59].veinsmobility 	totalTime 	80.4
scalar StVehScenario_100_25.node[59].veinsmobility 	stopTime 	80.6
scalar StVehScenario_100_25.node[59].veinsmobility 	minSpeed 	0.2516033765038
scalar StVehScenario_100_25.node[59].veinsmobility 	maxSpeed 	13.899426738252
scalar StVehScenario_100_25.node[59].veinsmobility 	totalDistance 	977.87760748936
scalar StVehScenario_100_25.node[59].veinsmobility 	totalCO2Emission 	231.05610900533
scalar StVehScenario_100_25.node[33].appl 	generatedWSMs 	0
scalar StVehScenario_100_25.node[33].appl 	receivedWSMs 	0
scalar StVehScenario_100_25.node[33].appl 	generatedBSMs 	812
scalar StVehScenario_100_25.node[33].appl 	receivedBSMs 	8127
scalar StVehScenario_100_25.node[33].appl 	generatedWSAs 	0
scalar StVehScenario_100_25.node[33].appl 	receivedWSAs 	0
scalar StVehScenario_100_25.node[33].appl 	rmseSUMGPS 	1833.9681562876
scalar StVehScenario_100_25.node[33].appl 	rmseSUMCP 	45293.164504609
scalar StVehScenario_100_25.node[33].appl 	delaySum 	0.90920106426691
scalar StVehScenario_100_25.node[33].nic.phy80211p 	busyTime 	0.01071763546798
scalar StVehScenario_100_25.node[33].nic.mac1609_4 	ReceivedUnicastPackets 	0
scalar StVehScenario_100_25.node[33].nic.mac1609_4 	ReceivedBroadcasts 	8127
scalar StVehScenario_100_25.node[33].nic.mac1609_4 	SentPackets 	812
scalar StVehScenario_100_25.node[33].nic.mac1609_4 	SNIRLostPackets 	241
scalar StVehScenario_100_25.node[33].nic.mac1609_4 	RXTXLostPackets 	0
scalar StVehScenario_100_25.node[33].nic.mac1609_4 	TotalLostPackets 	241
scalar StVehScenario_100_25.node[33].nic.mac1609_4 	DroppedPacketsInMac 	0
scalar StVehScenario_100_25.node[33].nic.mac1609_4 	TooLittleTime 	0
scalar StVehScenario_100_25.node[33].nic.mac1609_4 	TimesIntoBackoff 	812
scalar StVehScenario_100_25.node[33].nic.mac1609_4 	SlotsBackoff 	1210
scalar StVehScenario_100_25.node[33].nic.mac1609_4 	NumInternalContention 	0
scalar StVehScenario_100_25.node[33].nic.mac1609_4 	totalBusyTime 	0.955532
scalar StVehScenario_100_25.node[33].veinsmobility 	startTime 	0.1
scalar StVehScenario_100_25.node[33].veinsmobility 	totalTime 	81.1
scalar StVehScenario_100_25.node[33].veinsmobility 	stopTime 	81.3
scalar StVehScenario_100_25.node[33].veinsmobility 	minSpeed 	0.24773127502133
scalar StVehScenario_100_25.node[33].veinsmobility 	maxSpeed 	13.899674724417
scalar StVehScenario_100_25.node[33].veinsmobility 	totalDistance 	912.4192052948
scalar StVehScenario_100_25.node[33].veinsmobility 	totalCO2Emission 	242.46802577771
scalar StVehScenario_100_25.node[70].appl 	generatedWSMs 	0
scalar StVehScenario_100_25.node[70].appl 	receivedWSMs 	0
scalar StVehScenario_100_25.node[70].appl 	generatedBSMs 	817
scalar StVehScenario_100_25.node[70].appl 	receivedBSMs 	9489
scalar StVehScenario_100_25.node[70].appl 	generatedWSAs 	0
scalar StVehScenario_100_25.node[70].appl 	receivedWSAs 	0
scalar StVehScenario_100_25.node[70].appl 	rmseSUMGPS 	2004.3432484228
scalar StVehScenario_100_25.node[70].appl 	rmseSUMCP 	148053.4756073
scalar StVehScenario_100_25.node[70].appl 	delaySum 	0.46283142371202
scalar StVehScenario_100_25.node[70].nic.phy80211p 	busyTime 	0.012385801713586
scalar StVehScenario_100_25.node[70].nic.mac1609_4 	ReceivedUnicastPackets 	0
scalar StVehScenario_100_25.node[70].nic.mac1609_4 	ReceivedBroadcasts 	9489
scalar StVehScenario_100_25.node[70].nic.mac1609_4 	SentPackets 	817
scalar StVehScenario_100_25.node[70].nic.mac1609_4 	SNIRLostPackets 	241
scalar StVehScenario_100_25.node[70].nic.mac1609_4 	RXTXLostPackets 	0
scalar StVehScenario_100_25.node[70].nic.mac1609_4 	TotalLostPackets 	241
scalar StVehScenario_100_25.node[70].nic.mac1609_4 	DroppedPacketsInMac 	0
scalar StVehScenario_100_25.node[70].nic.mac1609_4 	TooLittleTime 	0
scalar StVehScenario_100_25.node[70].nic.mac1609_4 	TimesIntoBackoff 	817
scalar StVehScenario_100_25.node[70].nic.mac1609_4 	SlotsBackoff 	1201
scalar StVehScenario_100_25.node[70].nic.mac1609_4 	NumInternalContention 	0
scalar StVehScenario_100_25.node[70].nic.mac1609_4 	totalBusyTime 	1.092297
scalar StVehScenario_100_25.node[70].veinsmobility 	startTime 	0.1
scalar StVehScenario_100_25.node[70].veinsmobility 	totalTime 	81.6
scalar StVehScenario_100_25.node[70].veinsmobility 	stopTime 	81.8
scalar StVehScenario_100_25.node[70].veinsmobility 	minSpeed 	0.25489379768888
scalar StVehScenario_100_25.node[70].veinsmobility 	maxSpeed 	13.899914715295
scalar StVehScenario_100_25.node[70].veinsmobility 	totalDistance 	1037.3417770346
scalar StVehScenario_100_25.node[70].veinsmobility 	totalCO2Emission 	224.00241454053
scalar StVehScenario_100_25.node[26].appl 	generatedWSMs 	0
scalar StVehScenario_100_25.node[26].appl 	receivedWSMs 	0
scalar StVehScenario_100_25.node[26].appl 	generatedBSMs 	826
scalar StVehScenario_100_25.node[26].appl 	receivedBSMs 	10225
scalar StVehScenario_100_25.node[26].appl 	generatedWSAs 	0
scalar StVehScenario_100_25.node[26].appl 	receivedWSAs 	0
scalar StVehScenario_100_25.node[26].appl 	rmseSUMGPS 	1912.1393253712
scalar StVehScenario_100_25.node[26].appl 	rmseSUMCP 	0
scalar StVehScenario_100_25.node[26].appl 	delaySum 	0.00034413495900001
scalar StVehScenario_100_25.node[26].nic.phy80211p 	busyTime 	0.013036513317192
scalar StVehScenario_100_25.node[26].nic.mac1609_4 	ReceivedUnicastPackets 	0
scalar StVehScenario_100_25.node[26].nic.mac1609_4 	ReceivedBroadcasts 	10225
scalar StVehScenario_100_25.node[26].nic.mac1609_4 	SentPackets 	826
scalar StVehScenario_100_25.node[26].nic.mac1609_4 	SNIRLostPackets 	129
scalar StVehScenario_100_25.node[26].nic.mac1609_4 	RXTXLostPackets 	0
scalar StVehScenario_100_25.node[26].nic.mac1609_4 	TotalLostPackets 	129
scalar StVehScenario_100_25.node[26].nic.mac1609_4 	DroppedPacketsInMac 	0
scalar StVehScenario_100_25.node[26].nic.mac1609_4 	TooLittleTime 	0
scalar StVehScenario_100_25.node[26].nic.mac1609_4 	TimesIntoBackoff 	826
scalar StVehScenario_100_25.node[26].nic.mac1609_4 	SlotsBackoff 	1203
scalar StVehScenario_100_25.node[26].nic.mac1609_4 	NumInternalContention 	0
scalar StVehScenario_100_25.node[26].nic.mac1609_4 	totalBusyTime 	1.152522
scalar StVehScenario_100_25.node[26].veinsmobility 	startTime 	0.1
scalar StVehScenario_100_25.node[26].veinsmobility 	totalTime 	82.5
scalar StVehScenario_100_25.node[26].veinsmobility 	stopTime 	82.7
scalar StVehScenario_100_25.node[26].veinsmobility 	minSpeed 	0.247719304058
scalar StVehScenario_100_25.node[26].veinsmobility 	maxSpeed 	13.899845001712
scalar StVehScenario_100_25.node[26].veinsmobility 	totalDistance 	1044.7168465847
scalar StVehScenario_100_25.node[26].veinsmobility 	totalCO2Emission 	223.92284702714
scalar StVehScenario_100_25.node[63].appl 	generatedWSMs 	0
scalar StVehScenario_100_25.node[63].appl 	receivedWSMs 	0
scalar StVehScenario_100_25.node[63].appl 	generatedBSMs 	838
scalar StVehScenario_100_25.node[63].appl 	receivedBSMs 	10992
scalar StVehScenario_100_25.node[63].appl 	generatedWSAs 	0
scalar StVehScenario_100_25.node[63].appl 	receivedWSAs 	0
scalar StVehScenario_100_25.node[63].appl 	rmseSUMGPS 	2068.1555743591
scalar StVehScenario_100_25.node[63].appl 	rmseSUMCP 	317659.83839777
scalar StVehScenario_100_25.node[63].appl 	delaySum 	0.19916668362899
scalar StVehScenario_100_25.node[63].nic.phy80211p 	busyTime 	0.014041241050121
scalar StVehScenario_100_25.node[63].nic.mac1609_4 	ReceivedUnicastPackets 	0
scalar StVehScenario_100_25.node[63].nic.mac1609_4 	ReceivedBroadcasts 	10992
scalar StVehScenario_100_25.node[63].nic.mac1609_4 	SentPackets 	838
scalar StVehScenario_100_25.node[63].nic.mac1609_4 	SNIRLostPackets 	322
scalar StVehScenario_100_25.node[63].nic.mac1609_4 	RXTXLostPackets 	0
scalar StVehScenario_100_25.node[63].nic.mac1609_4 	TotalLostPackets 	322
scalar StVehScenario_100_25.node[63].nic.mac1609_4 	DroppedPacketsInMac 	0
scalar StVehScenario_100_25.node[63].nic.mac1609_4 	TooLittleTime 	0
scalar StVehScenario_100_25.node[63].nic.mac1609_4 	TimesIntoBackoff 	838
scalar StVehScenario_100_25.node[63].nic.mac1609_4 	SlotsBackoff 	1264
scalar StVehScenario_100_25.node[63].nic.mac1609_4 	NumInternalContention 	0
scalar StVehScenario_100_25.node[63].nic.mac1609_4 	totalBusyTime 	1.25279
scalar StVehScenario_100_25.node[63].veinsmobility 	startTime 	0.1
scalar StVehScenario_100_25.node[63].veinsmobility 	totalTime 	83.7
scalar StVehScenario_100_25.node[63].veinsmobility 	stopTime 	83.9
scalar StVehScenario_100_25.node[63].veinsmobility 	minSpeed 	0
scalar StVehScenario_100_25.node[63].veinsmobility 	maxSpeed 	13.899741218607
scalar StVehScenario_100_25.node[63].veinsmobility 	totalDistance 	668.61271745974
scalar StVehScenario_100_25.node[63].veinsmobility 	totalCO2Emission 	207.0504432434
scalar StVehScenario_100_25.node[46].appl 	generatedWSMs 	0
scalar StVehScenario_100_25.node[46].appl 	receivedWSMs 	0
scalar StVehScenario_100_25.node[46].appl 	generatedBSMs 	841
scalar StVehScenario_100_25.node[46].appl 	receivedBSMs 	13000
scalar StVehScenario_100_25.node[46].appl 	generatedWSAs 	0
scalar StVehScenario_100_25.node[46].appl 	receivedWSAs 	0
scalar StVehScenario_100_25.node[46].appl 	rmseSUMGPS 	2012.7002724827
scalar StVehScenario_100_25.node[46].appl 	rmseSUMCP 	42560.787917711
scalar StVehScenario_100_25.node[46].appl 	delaySum 	0.324841257203
scalar StVehScenario_100_25.node[46].nic.phy80211p 	busyTime 	0.016276432818077
scalar StVehScenario_100_25.node[46].nic.mac1609_4 	ReceivedUnicastPackets 	0
scalar StVehScenario_100_25.node[46].nic.mac1609_4 	ReceivedBroadcasts 	13000
scalar StVehScenario_100_25.node[46].nic.mac1609_4 	SentPackets 	841
scalar StVehScenario_100_25.node[46].nic.mac1609_4 	SNIRLostPackets 	162
scalar StVehScenario_100_25.node[46].nic.mac1609_4 	RXTXLostPackets 	0
scalar StVehScenario_100_25.node[46].nic.mac1609_4 	TotalLostPackets 	162
scalar StVehScenario_100_25.node[46].nic.mac1609_4 	DroppedPacketsInMac 	0
scalar StVehScenario_100_25.node[46].nic.mac1609_4 	TooLittleTime 	0
scalar StVehScenario_100_25.node[46].nic.mac1609_4 	TimesIntoBackoff 	841
scalar StVehScenario_100_25.node[46].nic.mac1609_4 	SlotsBackoff 	1217
scalar StVehScenario_100_25.node[46].nic.mac1609_4 	NumInternalContention 	0
scalar StVehScenario_100_25.node[46].nic.mac1609_4 	totalBusyTime 	1.452889
scalar StVehScenario_100_25.node[46].veinsmobility 	startTime 	0.1
scalar StVehScenario_100_25.node[46].veinsmobility 	totalTime 	84
scalar StVehScenario_100_25.node[46].veinsmobility 	stopTime 	84.2
scalar StVehScenario_100_25.node[46].veinsmobility 	minSpeed 	0
scalar StVehScenario_100_25.node[46].veinsmobility 	maxSpeed 	13.89924879099
scalar StVehScenario_100_25.node[46].veinsmobility 	totalDistance 	828.25676825636
scalar StVehScenario_100_25.node[46].veinsmobility 	totalCO2Emission 	226.71384660189
scalar StVehScenario_100_25.node[31].appl 	generatedWSMs 	0
scalar StVehScenario_100_25.node[31].appl 	receivedWSMs 	0
scalar StVehScenario_100_25.node[31].appl 	generatedBSMs 	863
scalar StVehScenario_100_25.node[31].appl 	receivedBSMs 	11457
scalar StVehScenario_100_25.node[31].appl 	generatedWSAs 	0
scalar StVehScenario_100_25.node[31].appl 	receivedWSAs 	0
scalar StVehScenario_100_25.node[31].appl 	rmseSUMGPS 	2087.1780933908
scalar StVehScenario_100_25.node[31].appl 	rmseSUMCP 	76175.378635658
scalar StVehScenario_100_25.node[31].appl 	delaySum 	1.0322511732999
scalar StVehScenario_100_25.node[31].nic.phy80211p 	busyTime 	0.014224982618774
scalar StVehScenario_100_25.node[31].nic.mac1609_4 	ReceivedUnicastPackets 	0
scalar StVehScenario_100_25.node[31].nic.mac1609_4 	ReceivedBroadcasts 	11457
scalar StVehScenario_100_25.node[31].nic.mac1609_4 	SentPackets 	863
scalar StVehScenario_100_25.node[31].nic.mac1609_4 	SNIRLostPackets 	347
scalar StVehScenario_100_25.node[31].nic.mac1609_4 	RXTXLostPackets 	0
scalar StVehScenario_100_25.node[31].nic.mac1609_4 	TotalLostPackets 	347
scalar StVehScenario_100_25.node[31].nic.mac1609_4 	DroppedPacketsInMac 	0
scalar StVehScenario_100_25.node[31].nic.mac1609_4 	TooLittleTime 	0
scalar StVehScenario_100_25.node[31].nic.mac1609_4 	TimesIntoBackoff 	863
scalar StVehScenario_100_25.node[31].nic.mac1609_4 	SlotsBackoff 	1213
scalar StVehScenario_100_25.node[31].nic.mac1609_4 	NumInternalContention 	0
scalar StVehScenario_100_25.node[31].nic.mac1609_4 	totalBusyTime 	1.304087
scalar StVehScenario_100_25.node[31].veinsmobility 	startTime 	0.1
scalar StVehScenario_100_25.node[31].veinsmobility 	totalTime 	86.2
scalar StVehScenario_100_25.node[31].veinsmobility 	stopTime 	86.4
scalar StVehScenario_100_25.node[31].veinsmobility 	minSpeed 	0.25449248764175
scalar StVehScenario_100_25.node[31].veinsmobility 	maxSpeed 	13.899889378147
scalar StVehScenario_100_25.node[31].veinsmobility 	totalDistance 	980.68699070476
scalar StVehScenario_100_25.node[31].veinsmobility 	totalCO2Emission 	258.01768267308
scalar StVehScenario_100_25.node[30].appl 	generatedWSMs 	0
scalar StVehScenario_100_25.node[30].appl 	receivedWSMs 	0
scalar StVehScenario_100_25.node[30].appl 	generatedBSMs 	864
scalar StVehScenario_100_25.node[30].appl 	receivedBSMs 	13544
scalar StVehScenario_100_25.node[30].appl 	generatedWSAs 	0
scalar StVehScenario_100_25.node[30].appl 	receivedWSAs 	0
scalar StVehScenario_100_25.node[30].appl 	rmseSUMGPS 	2010.2879116113
scalar StVehScenario_100_25.node[30].appl 	rmseSUMCP 	374838.80296006
scalar StVehScenario_100_25.node[30].appl 	delaySum 	0.00055690281100006
scalar StVehScenario_100_25.node[30].nic.phy80211p 	busyTime 	0.016519629629634
scalar StVehScenario_100_25.node[30].nic.mac1609_4 	ReceivedUnicastPackets 	0
scalar StVehScenario_100_25.node[30].nic.mac1609_4 	ReceivedBroadcasts 	13544
scalar StVehScenario_100_25.node[30].nic.mac1609_4 	SentPackets 	864
scalar StVehScenario_100_25.node[30].nic.mac1609_4 	SNIRLostPackets 	180
scalar StVehScenario_100_25.node[30].nic.mac1609_4 	RXTXLostPackets 	0
scalar StVehScenario_100_25.node[30].nic.mac1609_4 	TotalLostPackets 	180
scalar StVehScenario_100_25.node[30].nic.mac1609_4 	DroppedPacketsInMac 	0
scalar StVehScenario_100_25.node[30].nic.mac1609_4 	TooLittleTime 	0
scalar StVehScenario_100_25.node[30].nic.mac1609_4 	TimesIntoBackoff 	864
scalar StVehScenario_100_25.node[30].nic.mac1609_4 	SlotsBackoff 	1263
scalar StVehScenario_100_25.node[30].nic.mac1609_4 	NumInternalContention 	0
scalar StVehScenario_100_25.node[30].nic.mac1609_4 	totalBusyTime 	1.512296
scalar StVehScenario_100_25.node[30].veinsmobility 	startTime 	0.1
scalar StVehScenario_100_25.node[30].veinsmobility 	totalTime 	86.3
scalar StVehScenario_100_25.node[30].veinsmobility 	stopTime 	86.5
scalar StVehScenario_100_25.node[30].veinsmobility 	minSpeed 	0.24917594204308
scalar StVehScenario_100_25.node[30].veinsmobility 	maxSpeed 	13.899951229803
scalar StVehScenario_100_25.node[30].veinsmobility 	totalDistance 	1057.1769768967
scalar StVehScenario_100_25.node[30].veinsmobility 	totalCO2Emission 	245.74415612255
scalar StVehScenario_100_25.node[9].appl 	generatedWSMs 	0
scalar StVehScenario_100_25.node[9].appl 	receivedWSMs 	0
scalar StVehScenario_100_25.node[9].appl 	generatedBSMs 	865
scalar StVehScenario_100_25.node[9].appl 	receivedBSMs 	14113
scalar StVehScenario_100_25.node[9].appl 	generatedWSAs 	0
scalar StVehScenario_100_25.node[9].appl 	receivedWSAs 	0
scalar StVehScenario_100_25.node[9].appl 	rmseSUMGPS 	1996.1283610753
scalar StVehScenario_100_25.node[9].appl 	rmseSUMCP 	0
scalar StVehScenario_100_25.node[9].appl 	delaySum 	0.00021909481
scalar StVehScenario_100_25.node[9].nic.phy80211p 	busyTime 	0.017155791907519
scalar StVehScenario_100_25.node[9].nic.mac1609_4 	ReceivedUnicastPackets 	0
scalar StVehScenario_100_25.node[9].nic.mac1609_4 	ReceivedBroadcasts 	14113
scalar StVehScenario_100_25.node[9].nic.mac1609_4 	SentPackets 	865
scalar StVehScenario_100_25.node[9].nic.mac1609_4 	SNIRLostPackets 	156
scalar StVehScenario_100_25.node[9].nic.mac1609_4 	RXTXLostPackets 	0
scalar StVehScenario_100_25.node[9].nic.mac1609_4 	TotalLostPackets 	156
scalar StVehScenario_100_25.node[9].nic.mac1609_4 	DroppedPacketsInMac 	0
scalar StVehScenario_100_25.node[9].nic.mac1609_4 	TooLittleTime 	0
scalar StVehScenario_100_25.node[9].nic.mac1609_4 	TimesIntoBackoff 	865
scalar StVehScenario_100_25.node[9].nic.mac1609_4 	SlotsBackoff 	1324
scalar StVehScenario_100_25.node[9].nic.mac1609_4 	NumInternalContention 	0
scalar StVehScenario_100_25.node[9].nic.mac1609_4 	totalBusyTime 	1.574801
scalar StVehScenario_100_25.node[9].veinsmobility 	startTime 	0.1
scalar StVehScenario_100_25.node[9].veinsmobility 	totalTime 	86.4
scalar StVehScenario_100_25.node[9].veinsmobility 	stopTime 	86.6
scalar StVehScenario_100_25.node[9].veinsmobility 	minSpeed 	0
scalar StVehScenario_100_25.node[9].veinsmobility 	maxSpeed 	13.899613604036
scalar StVehScenario_100_25.node[9].veinsmobility 	totalDistance 	926.63371933697
scalar StVehScenario_100_25.node[9].veinsmobility 	totalCO2Emission 	253.38408550616
scalar StVehScenario_100_25.node[79].appl 	generatedWSMs 	0
scalar StVehScenario_100_25.node[79].appl 	receivedWSMs 	0
scalar StVehScenario_100_25.node[79].appl 	generatedBSMs 	865
scalar StVehScenario_100_25.node[79].appl 	receivedBSMs 	9115
scalar StVehScenario_100_25.node[79].appl 	generatedWSAs 	0
scalar StVehScenario_100_25.node[79].appl 	receivedWSAs 	0
scalar StVehScenario_100_25.node[79].appl 	rmseSUMGPS 	2139.6957456423
scalar StVehScenario_100_25.node[79].appl 	rmseSUMCP 	69233.721816576
scalar StVehScenario_100_25.node[79].appl 	delaySum 	1.020665868879
scalar StVehScenario_100_25.node[79].nic.phy80211p 	busyTime 	0.011296924855491
scalar StVehScenario_100_25.node[79].nic.mac1609_4 	ReceivedUnicastPackets 	0
[...]
scalar StVehScenario_100_25.rsu[11].nic.mac1609_4 	TotalLostPackets 	311
scalar StVehScenario_100_25.rsu[11].nic.mac1609_4 	DroppedPacketsInMac 	0
scalar StVehScenario_100_25.rsu[11].nic.mac1609_4 	TooLittleTime 	0
scalar StVehScenario_100_25.rsu[11].nic.mac1609_4 	TimesIntoBackoff 	10000
scalar StVehScenario_100_25.rsu[11].nic.mac1609_4 	SlotsBackoff 	15011
scalar StVehScenario_100_25.rsu[11].nic.mac1609_4 	NumInternalContention 	0
scalar StVehScenario_100_25.rsu[11].nic.mac1609_4 	totalBusyTime 	14.9418
scalar StVehScenario_100_25.rsu[12].appl 	generatedWSMs 	0
scalar StVehScenario_100_25.rsu[12].appl 	receivedWSMs 	0
scalar StVehScenario_100_25.rsu[12].appl 	generatedBSMs 	10000
scalar StVehScenario_100_25.rsu[12].appl 	receivedBSMs 	131626
scalar StVehScenario_100_25.rsu[12].appl 	generatedWSAs 	0
scalar StVehScenario_100_25.rsu[12].appl 	receivedWSAs 	0
scalar StVehScenario_100_25.rsu[12].appl 	rmseSUMGPS 	0
scalar StVehScenario_100_25.rsu[12].appl 	rmseSUMCP 	0
scalar StVehScenario_100_25.rsu[12].appl 	delaySum 	0.000116457447
scalar StVehScenario_100_25.rsu[12].nic.phy80211p 	busyTime 	0.013694408000029
scalar StVehScenario_100_25.rsu[12].nic.mac1609_4 	ReceivedUnicastPackets 	0
scalar StVehScenario_100_25.rsu[12].nic.mac1609_4 	ReceivedBroadcasts 	131626
scalar StVehScenario_100_25.rsu[12].nic.mac1609_4 	SentPackets 	10000
scalar StVehScenario_100_25.rsu[12].nic.mac1609_4 	SNIRLostPackets 	51
scalar StVehScenario_100_25.rsu[12].nic.mac1609_4 	RXTXLostPackets 	0
scalar StVehScenario_100_25.rsu[12].nic.mac1609_4 	TotalLostPackets 	51
scalar StVehScenario_100_25.rsu[12].nic.mac1609_4 	DroppedPacketsInMac 	0
scalar StVehScenario_100_25.rsu[12].nic.mac1609_4 	TooLittleTime 	0
scalar StVehScenario_100_25.rsu[12].nic.mac1609_4 	TimesIntoBackoff 	20000
scalar StVehScenario_100_25.rsu[12].nic.mac1609_4 	SlotsBackoff 	30257
scalar StVehScenario_100_25.rsu[12].nic.mac1609_4 	NumInternalContention 	0
scalar StVehScenario_100_25.rsu[12].nic.mac1609_4 	totalBusyTime 	14.744408
scalar StVehScenario_100_25.rsu[13].appl 	generatedWSMs 	0
scalar StVehScenario_100_25.rsu[13].appl 	receivedWSMs 	0
scalar StVehScenario_100_25.rsu[13].appl 	generatedBSMs 	10000
scalar StVehScenario_100_25.rsu[13].appl 	receivedBSMs 	131628
scalar StVehScenario_100_25.rsu[13].appl 	generatedWSAs 	0
scalar StVehScenario_100_25.rsu[13].appl 	receivedWSAs 	0
scalar StVehScenario_100_25.rsu[13].appl 	rmseSUMGPS 	0
scalar StVehScenario_100_25.rsu[13].appl 	rmseSUMCP 	0
scalar StVehScenario_100_25.rsu[13].appl 	delaySum 	0.000116457447
scalar StVehScenario_100_25.rsu[13].nic.phy80211p 	busyTime 	0.013694408000029
scalar StVehScenario_100_25.rsu[13].nic.mac1609_4 	ReceivedUnicastPackets 	0
scalar StVehScenario_100_25.rsu[13].nic.mac1609_4 	ReceivedBroadcasts 	131628
scalar StVehScenario_100_25.rsu[13].nic.mac1609_4 	SentPackets 	10000
scalar StVehScenario_100_25.rsu[13].nic.mac1609_4 	SNIRLostPackets 	49
scalar StVehScenario_100_25.rsu[13].nic.mac1609_4 	RXTXLostPackets 	0
scalar StVehScenario_100_25.rsu[13].nic.mac1609_4 	TotalLostPackets 	49
scalar StVehScenario_100_25.rsu[13].nic.mac1609_4 	DroppedPacketsInMac 	0
scalar StVehScenario_100_25.rsu[13].nic.mac1609_4 	TooLittleTime 	0
scalar StVehScenario_100_25.rsu[13].nic.mac1609_4 	TimesIntoBackoff 	10000
scalar StVehScenario_100_25.rsu[13].nic.mac1609_4 	SlotsBackoff 	15040
scalar StVehScenario_100_25.rsu[13].nic.mac1609_4 	NumInternalContention 	0
scalar StVehScenario_100_25.rsu[13].nic.mac1609_4 	totalBusyTime 	14.744408
scalar StVehScenario_100_25.rsu[14].appl 	generatedWSMs 	0
scalar StVehScenario_100_25.rsu[14].appl 	receivedWSMs 	0
scalar StVehScenario_100_25.rsu[14].appl 	generatedBSMs 	10000
scalar StVehScenario_100_25.rsu[14].appl 	receivedBSMs 	114119
scalar StVehScenario_100_25.rsu[14].appl 	generatedWSAs 	0
scalar StVehScenario_100_25.rsu[14].appl 	receivedWSAs 	0
scalar StVehScenario_100_25.rsu[14].appl 	rmseSUMGPS 	0
scalar StVehScenario_100_25.rsu[14].appl 	rmseSUMCP 	0
scalar StVehScenario_100_25.rsu[14].appl 	delaySum 	0.000112016958
scalar StVehScenario_100_25.rsu[14].nic.phy80211p 	busyTime 	0.011905088000023
scalar StVehScenario_100_25.rsu[14].nic.mac1609_4 	ReceivedUnicastPackets 	0
scalar StVehScenario_100_25.rsu[14].nic.mac1609_4 	ReceivedBroadcasts 	114119
scalar StVehScenario_100_25.rsu[14].nic.mac1609_4 	SentPackets 	10000
scalar StVehScenario_100_25.rsu[14].nic.mac1609_4 	SNIRLostPackets 	353
scalar StVehScenario_100_25.rsu[14].nic.mac1609_4 	RXTXLostPackets 	0
scalar StVehScenario_100_25.rsu[14].nic.mac1609_4 	TotalLostPackets 	353
scalar StVehScenario_100_25.rsu[14].nic.mac1609_4 	DroppedPacketsInMac 	0
scalar StVehScenario_100_25.rsu[14].nic.mac1609_4 	TooLittleTime 	0
scalar StVehScenario_100_25.rsu[14].nic.mac1609_4 	TimesIntoBackoff 	10000
scalar StVehScenario_100_25.rsu[14].nic.mac1609_4 	SlotsBackoff 	15028
scalar StVehScenario_100_25.rsu[14].nic.mac1609_4 	NumInternalContention 	0
scalar StVehScenario_100_25.rsu[14].nic.mac1609_4 	totalBusyTime 	12.950408
scalar StVehScenario_100_25.rsu[15].appl 	generatedWSMs 	0
scalar StVehScenario_100_25.rsu[15].appl 	receivedWSMs 	0
scalar StVehScenario_100_25.rsu[15].appl 	generatedBSMs 	10000
scalar StVehScenario_100_25.rsu[15].appl 	receivedBSMs 	111591
scalar StVehScenario_100_25.rsu[15].appl 	generatedWSAs 	0
scalar StVehScenario_100_25.rsu[15].appl 	receivedWSAs 	0
scalar StVehScenario_100_25.rsu[15].appl 	rmseSUMGPS 	0
scalar StVehScenario_100_25.rsu[15].appl 	rmseSUMCP 	0
scalar StVehScenario_100_25.rsu[15].appl 	delaySum 	0.000111773804
scalar StVehScenario_100_25.rsu[15].nic.phy80211p 	busyTime 	0.011628136000023
scalar StVehScenario_100_25.rsu[15].nic.mac1609_4 	ReceivedUnicastPackets 	0
scalar StVehScenario_100_25.rsu[15].nic.mac1609_4 	ReceivedBroadcasts 	111591
scalar StVehScenario_100_25.rsu[15].nic.mac1609_4 	SentPackets 	10000
scalar StVehScenario_100_25.rsu[15].nic.mac1609_4 	SNIRLostPackets 	218
scalar StVehScenario_100_25.rsu[15].nic.mac1609_4 	RXTXLostPackets 	0
scalar StVehScenario_100_25.rsu[15].nic.mac1609_4 	TotalLostPackets 	218
scalar StVehScenario_100_25.rsu[15].nic.mac1609_4 	DroppedPacketsInMac 	0
scalar StVehScenario_100_25.rsu[15].nic.mac1609_4 	TooLittleTime 	0
scalar StVehScenario_100_25.rsu[15].nic.mac1609_4 	TimesIntoBackoff 	10000
scalar StVehScenario_100_25.rsu[15].nic.mac1609_4 	SlotsBackoff 	15109
scalar StVehScenario_100_25.rsu[15].nic.mac1609_4 	NumInternalContention 	0
scalar StVehScenario_100_25.rsu[15].nic.mac1609_4 	totalBusyTime 	12.678136
scalar StVehScenario_100_25.rsu[16].appl 	generatedWSMs 	0
scalar StVehScenario_100_25.rsu[16].appl 	receivedWSMs 	0
scalar StVehScenario_100_25.rsu[16].appl 	generatedBSMs 	10000
scalar StVehScenario_100_25.rsu[16].appl 	receivedBSMs 	214715
scalar StVehScenario_100_25.rsu[16].appl 	generatedWSAs 	0
scalar StVehScenario_100_25.rsu[16].appl 	receivedWSAs 	0
scalar StVehScenario_100_25.rsu[16].appl 	rmseSUMGPS 	0
scalar StVehScenario_100_25.rsu[16].appl 	rmseSUMCP 	0
scalar StVehScenario_100_25.rsu[16].appl 	delaySum 	0.000117089388
scalar StVehScenario_100_25.rsu[16].nic.phy80211p 	busyTime 	0.022449960000057
scalar StVehScenario_100_25.rsu[16].nic.mac1609_4 	ReceivedUnicastPackets 	0
scalar StVehScenario_100_25.rsu[16].nic.mac1609_4 	ReceivedBroadcasts 	214715
scalar StVehScenario_100_25.rsu[16].nic.mac1609_4 	SentPackets 	10000
scalar StVehScenario_100_25.rsu[16].nic.mac1609_4 	SNIRLostPackets 	1150
scalar StVehScenario_100_25.rsu[16].nic.mac1609_4 	RXTXLostPackets 	0
scalar StVehScenario_100_25.rsu[16].nic.mac1609_4 	TotalLostPackets 	1150
scalar StVehScenario_100_25.rsu[16].nic.mac1609_4 	DroppedPacketsInMac 	0
scalar StVehScenario_100_25.rsu[16].nic.mac1609_4 	TooLittleTime 	0
scalar StVehScenario_100_25.rsu[16].nic.mac1609_4 	TimesIntoBackoff 	10000
scalar StVehScenario_100_25.rsu[16].nic.mac1609_4 	SlotsBackoff 	14952
scalar StVehScenario_100_25.rsu[16].nic.mac1609_4 	NumInternalContention 	0
scalar StVehScenario_100_25.rsu[16].nic.mac1609_4 	totalBusyTime 	23.474584
scalar StVehScenario_100_25.rsu[17].appl 	generatedWSMs 	0
scalar StVehScenario_100_25.rsu[17].appl 	receivedWSMs 	0
scalar StVehScenario_100_25.rsu[17].appl 	generatedBSMs 	10000
scalar StVehScenario_100_25.rsu[17].appl 	receivedBSMs 	133440
scalar StVehScenario_100_25.rsu[17].appl 	generatedWSAs 	0
scalar StVehScenario_100_25.rsu[17].appl 	receivedWSAs 	0
scalar StVehScenario_100_25.rsu[17].appl 	rmseSUMGPS 	0
scalar StVehScenario_100_25.rsu[17].appl 	rmseSUMCP 	0
scalar StVehScenario_100_25.rsu[17].appl 	delaySum 	0.000116829731
scalar StVehScenario_100_25.rsu[17].nic.phy80211p 	busyTime 	0.01391041600003
scalar StVehScenario_100_25.rsu[17].nic.mac1609_4 	ReceivedUnicastPackets 	0
scalar StVehScenario_100_25.rsu[17].nic.mac1609_4 	ReceivedBroadcasts 	133440
scalar StVehScenario_100_25.rsu[17].nic.mac1609_4 	SentPackets 	10000
scalar StVehScenario_100_25.rsu[17].nic.mac1609_4 	SNIRLostPackets 	314
scalar StVehScenario_100_25.rsu[17].nic.mac1609_4 	RXTXLostPackets 	0
scalar StVehScenario_100_25.rsu[17].nic.mac1609_4 	TotalLostPackets 	314
scalar StVehScenario_100_25.rsu[17].nic.mac1609_4 	DroppedPacketsInMac 	0
scalar StVehScenario_100_25.rsu[17].nic.mac1609_4 	TooLittleTime 	0
scalar StVehScenario_100_25.rsu[17].nic.mac1609_4 	TimesIntoBackoff 	10000
scalar StVehScenario_100_25.rsu[17].nic.mac1609_4 	SlotsBackoff 	14915
scalar StVehScenario_100_25.rsu[17].nic.mac1609_4 	NumInternalContention 	0
scalar StVehScenario_100_25.rsu[17].nic.mac1609_4 	totalBusyTime 	14.942528
scalar StVehScenario_100_25.rsu[18].appl 	generatedWSMs 	0
scalar StVehScenario_100_25.rsu[18].appl 	receivedWSMs 	0
scalar StVehScenario_100_25.rsu[18].appl 	generatedBSMs 	10000
scalar StVehScenario_100_25.rsu[18].appl 	receivedBSMs 	120071
scalar StVehScenario_100_25.rsu[18].appl 	generatedWSAs 	0
scalar StVehScenario_100_25.rsu[18].appl 	receivedWSAs 	0
scalar StVehScenario_100_25.rsu[18].appl 	rmseSUMGPS 	0
scalar StVehScenario_100_25.rsu[18].appl 	rmseSUMCP 	0
scalar StVehScenario_100_25.rsu[18].appl 	delaySum 	0.000111561489
scalar StVehScenario_100_25.rsu[18].nic.phy80211p 	busyTime 	0.012500592000025
scalar StVehScenario_100_25.rsu[18].nic.mac1609_4 	ReceivedUnicastPackets 	0
scalar StVehScenario_100_25.rsu[18].nic.mac1609_4 	ReceivedBroadcasts 	120071
scalar StVehScenario_100_25.rsu[18].nic.mac1609_4 	SentPackets 	10000
scalar StVehScenario_100_25.rsu[18].nic.mac1609_4 	SNIRLostPackets 	127
scalar StVehScenario_100_25.rsu[18].nic.mac1609_4 	RXTXLostPackets 	0
scalar StVehScenario_100_25.rsu[18].nic.mac1609_4 	TotalLostPackets 	127
scalar StVehScenario_100_25.rsu[18].nic.mac1609_4 	DroppedPacketsInMac 	0
scalar StVehScenario_100_25.rsu[18].nic.mac1609_4 	TooLittleTime 	0
scalar StVehScenario_100_25.rsu[18].nic.mac1609_4 	TimesIntoBackoff 	10000
scalar StVehScenario_100_25.rsu[18].nic.mac1609_4 	SlotsBackoff 	14997
scalar StVehScenario_100_25.rsu[18].nic.mac1609_4 	NumInternalContention 	0
scalar StVehScenario_100_25.rsu[18].nic.mac1609_4 	totalBusyTime 	13.550592
scalar StVehScenario_100_25.rsu[19].appl 	generatedWSMs 	0
scalar StVehScenario_100_25.rsu[19].appl 	receivedWSMs 	0
scalar StVehScenario_100_25.rsu[19].appl 	generatedBSMs 	10000
scalar StVehScenario_100_25.rsu[19].appl 	receivedBSMs 	110247
scalar StVehScenario_100_25.rsu[19].appl 	generatedWSAs 	0
scalar StVehScenario_100_25.rsu[19].appl 	receivedWSAs 	0
scalar StVehScenario_100_25.rsu[19].appl 	rmseSUMGPS 	0
scalar StVehScenario_100_25.rsu[19].appl 	rmseSUMCP 	0
scalar StVehScenario_100_25.rsu[19].appl 	delaySum 	0.000111519318
scalar StVehScenario_100_25.rsu[19].nic.phy80211p 	busyTime 	0.011477128000022
scalar StVehScenario_100_25.rsu[19].nic.mac1609_4 	ReceivedUnicastPackets 	0
scalar StVehScenario_100_25.rsu[19].nic.mac1609_4 	ReceivedBroadcasts 	110247
scalar StVehScenario_100_25.rsu[19].nic.mac1609_4 	SentPackets 	10000
scalar StVehScenario_100_25.rsu[19].nic.mac1609_4 	SNIRLostPackets 	110
scalar StVehScenario_100_25.rsu[19].nic.mac1609_4 	RXTXLostPackets 	0
scalar StVehScenario_100_25.rsu[19].nic.mac1609_4 	TotalLostPackets 	110
scalar StVehScenario_100_25.rsu[19].nic.mac1609_4 	DroppedPacketsInMac 	0
scalar StVehScenario_100_25.rsu[19].nic.mac1609_4 	TooLittleTime 	0
scalar StVehScenario_100_25.rsu[19].nic.mac1609_4 	TimesIntoBackoff 	10000
scalar StVehScenario_100_25.rsu[19].nic.mac1609_4 	SlotsBackoff 	15014
scalar StVehScenario_100_25.rsu[19].nic.mac1609_4 	NumInternalContention 	0
scalar StVehScenario_100_25.rsu[19].nic.mac1609_4 	totalBusyTime 	12.527128
scalar StVehScenario_100_25.rsu[20].appl 	generatedWSMs 	0
scalar StVehScenario_100_25.rsu[20].appl 	receivedWSMs 	0
scalar StVehScenario_100_25.rsu[20].appl 	generatedBSMs 	10000
scalar StVehScenario_100_25.rsu[20].appl 	receivedBSMs 	110257
scalar StVehScenario_100_25.rsu[20].appl 	generatedWSAs 	0
scalar StVehScenario_100_25.rsu[20].appl 	receivedWSAs 	0
scalar StVehScenario_100_25.rsu[20].appl 	rmseSUMGPS 	0
scalar StVehScenario_100_25.rsu[20].appl 	rmseSUMCP 	0
scalar StVehScenario_100_25.rsu[20].appl 	delaySum 	0.000111519318
scalar StVehScenario_100_25.rsu[20].nic.phy80211p 	busyTime 	0.011477128000022
scalar StVehScenario_100_25.rsu[20].nic.mac1609_4 	ReceivedUnicastPackets 	0
scalar StVehScenario_100_25.rsu[20].nic.mac1609_4 	ReceivedBroadcasts 	110257
scalar StVehScenario_100_25.rsu[20].nic.mac1609_4 	SentPackets 	10000
scalar StVehScenario_100_25.rsu[20].nic.mac1609_4 	SNIRLostPackets 	100
scalar StVehScenario_100_25.rsu[20].nic.mac1609_4 	RXTXLostPackets 	0
scalar StVehScenario_100_25.rsu[20].nic.mac1609_4 	TotalLostPackets 	100
scalar StVehScenario_100_25.rsu[20].nic.mac1609_4 	DroppedPacketsInMac 	0
scalar StVehScenario_100_25.rsu[20].nic.mac1609_4 	TooLittleTime 	0
scalar StVehScenario_100_25.rsu[20].nic.mac1609_4 	TimesIntoBackoff 	10000
scalar StVehScenario_100_25.rsu[20].nic.mac1609_4 	SlotsBackoff 	15121
scalar StVehScenario_100_25.rsu[20].nic.mac1609_4 	NumInternalContention 	0
scalar StVehScenario_100_25.rsu[20].nic.mac1609_4 	totalBusyTime 	12.527128
scalar StVehScenario_100_25.rsu[21].appl 	generatedWSMs 	0
scalar StVehScenario_100_25.rsu[21].appl 	receivedWSMs 	0
scalar StVehScenario_100_25.rsu[21].appl 	generatedBSMs 	10000
scalar StVehScenario_100_25.rsu[21].appl 	receivedBSMs 	110251
scalar StVehScenario_100_25.rsu[21].appl 	generatedWSAs 	0
scalar StVehScenario_100_25.rsu[21].appl 	receivedWSAs 	0
scalar StVehScenario_100_25.rsu[21].appl 	rmseSUMGPS 	0
scalar StVehScenario_100_25.rsu[21].appl 	rmseSUMCP 	0
scalar StVehScenario_100_25.rsu[21].appl 	delaySum 	0.000111519318
scalar StVehScenario_100_25.rsu[21].nic.phy80211p 	busyTime 	0.011477128000022
scalar StVehScenario_100_25.rsu[21].nic.mac1609_4 	ReceivedUnicastPackets 	0
scalar StVehScenario_100_25.rsu[21].nic.mac1609_4 	ReceivedBroadcasts 	110251
scalar StVehScenario_100_25.rsu[21].nic.mac1609_4 	SentPackets 	10000
scalar StVehScenario_100_25.rsu[21].nic.mac1609_4 	SNIRLostPackets 	106
scalar StVehScenario_100_25.rsu[21].nic.mac1609_4 	RXTXLostPackets 	0
scalar StVehScenario_100_25.rsu[21].nic.mac1609_4 	TotalLostPackets 	106
scalar StVehScenario_100_25.rsu[21].nic.mac1609_4 	DroppedPacketsInMac 	0
scalar StVehScenario_100_25.rsu[21].nic.mac1609_4 	TooLittleTime 	0
scalar StVehScenario_100_25.rsu[21].nic.mac1609_4 	TimesIntoBackoff 	10000
scalar StVehScenario_100_25.rsu[21].nic.mac1609_4 	SlotsBackoff 	14916
scalar StVehScenario_100_25.rsu[21].nic.mac1609_4 	NumInternalContention 	0
scalar StVehScenario_100_25.rsu[21].nic.mac1609_4 	totalBusyTime 	12.527128
scalar StVehScenario_100_25.rsu[22].appl 	generatedWSMs 	0
scalar StVehScenario_100_25.rsu[22].appl 	receivedWSMs 	0
scalar StVehScenario_100_25.rsu[22].appl 	generatedBSMs 	10000
scalar StVehScenario_100_25.rsu[22].appl 	receivedBSMs 	110259
scalar StVehScenario_100_25.rsu[22].appl 	generatedWSAs 	0
scalar StVehScenario_100_25.rsu[22].appl 	receivedWSAs 	0
scalar StVehScenario_100_25.rsu[22].appl 	rmseSUMGPS 	0
scalar StVehScenario_100_25.rsu[22].appl 	rmseSUMCP 	0
scalar StVehScenario_100_25.rsu[22].appl 	delaySum 	0.000111519318
scalar StVehScenario_100_25.rsu[22].nic.phy80211p 	busyTime 	0.011477128000022
scalar StVehScenario_100_25.rsu[22].nic.mac1609_4 	ReceivedUnicastPackets 	0
scalar StVehScenario_100_25.rsu[22].nic.mac1609_4 	ReceivedBroadcasts 	110259
scalar StVehScenario_100_25.rsu[22].nic.mac1609_4 	SentPackets 	10000
scalar StVehScenario_100_25.rsu[22].nic.mac1609_4 	SNIRLostPackets 	98
scalar StVehScenario_100_25.rsu[22].nic.mac1609_4 	RXTXLostPackets 	0
scalar StVehScenario_100_25.rsu[22].nic.mac1609_4 	TotalLostPackets 	98
scalar StVehScenario_100_25.rsu[22].nic.mac1609_4 	DroppedPacketsInMac 	0
scalar StVehScenario_100_25.rsu[22].nic.mac1609_4 	TooLittleTime 	0
scalar StVehScenario_100_25.rsu[22].nic.mac1609_4 	TimesIntoBackoff 	10000
scalar StVehScenario_100_25.rsu[22].nic.mac1609_4 	SlotsBackoff 	15213
scalar StVehScenario_100_25.rsu[22].nic.mac1609_4 	NumInternalContention 	0
scalar StVehScenario_100_25.rsu[22].nic.mac1609_4 	totalBusyTime 	12.527128
scalar StVehScenario_100_25.rsu[23].appl 	generatedWSMs 	0
scalar StVehScenario_100_25.rsu[23].appl 	receivedWSMs 	0
scalar StVehScenario_100_25.rsu[23].appl 	generatedBSMs 	10000
scalar StVehScenario_100_25.rsu[23].appl 	receivedBSMs 	110253
scalar StVehScenario_100_25.rsu[23].appl 	generatedWSAs 	0
scalar StVehScenario_100_25.rsu[23].appl 	receivedWSAs 	0
scalar StVehScenario_100_25.rsu[23].appl 	rmseSUMGPS 	0
scalar StVehScenario_100_25.rsu[23].appl 	rmseSUMCP 	0
scalar StVehScenario_100_25.rsu[23].appl 	delaySum 	0.000111519318
scalar StVehScenario_100_25.rsu[23].nic.phy80211p 	busyTime 	0.011477128000022
scalar StVehScenario_100_25.rsu[23].nic.mac1609_4 	ReceivedUnicastPackets 	0
scalar StVehScenario_100_25.rsu[23].nic.mac1609_4 	ReceivedBroadcasts 	110253
scalar StVehScenario_100_25.rsu[23].nic.mac1609_4 	SentPackets 	10000
scalar StVehScenario_100_25.rsu[23].nic.mac1609_4 	SNIRLostPackets 	104
scalar StVehScenario_100_25.rsu[23].nic.mac1609_4 	RXTXLostPackets 	0
scalar StVehScenario_100_25.rsu[23].nic.mac1609_4 	TotalLostPackets 	104
scalar StVehScenario_100_25.rsu[23].nic.mac1609_4 	DroppedPacketsInMac 	0
scalar StVehScenario_100_25.rsu[23].nic.mac1609_4 	TooLittleTime 	0
scalar StVehScenario_100_25.rsu[23].nic.mac1609_4 	TimesIntoBackoff 	10000
scalar StVehScenario_100_25.rsu[23].nic.mac1609_4 	SlotsBackoff 	14945
scalar StVehScenario_100_25.rsu[23].nic.mac1609_4 	NumInternalContention 	0
scalar StVehScenario_100_25.rsu[23].nic.mac1609_4 	totalBusyTime 	12.527128
scalar StVehScenario_100_25.rsu[24].appl 	generatedWSMs 	0
scalar StVehScenario_100_25.rsu[24].appl 	receivedWSMs 	0
scalar StVehScenario_100_25.rsu[24].appl 	generatedBSMs 	10000
scalar StVehScenario_100_25.rsu[24].appl 	receivedBSMs 	37419
scalar StVehScenario_100_25.rsu[24].appl 	generatedWSAs 	0
scalar StVehScenario_100_25.rsu[24].appl 	receivedWSAs 	0
scalar StVehScenario_100_25.rsu[24].appl 	rmseSUMGPS 	0
scalar StVehScenario_100_25.rsu[24].appl 	rmseSUMCP 	0
scalar StVehScenario_100_25.rsu[24].appl 	delaySum 	0.000115849985
scalar StVehScenario_100_25.rsu[24].nic.phy80211p 	busyTime 	0.0039552239999987
scalar StVehScenario_100_25.rsu[24].nic.mac1609_4 	ReceivedUnicastPackets 	0
scalar StVehScenario_100_25.rsu[24].nic.mac1609_4 	ReceivedBroadcasts 	37419
scalar StVehScenario_100_25.rsu[24].nic.mac1609_4 	SentPackets 	10000
scalar StVehScenario_100_25.rsu[24].nic.mac1609_4 	SNIRLostPackets 	612
scalar StVehScenario_100_25.rsu[24].nic.mac1609_4 	RXTXLostPackets 	0
scalar StVehScenario_100_25.rsu[24].nic.mac1609_4 	TotalLostPackets 	612
scalar StVehScenario_100_25.rsu[24].nic.mac1609_4 	DroppedPacketsInMac 	0
scalar StVehScenario_100_25.rsu[24].nic.mac1609_4 	TooLittleTime 	0
scalar StVehScenario_100_25.rsu[24].nic.mac1609_4 	TimesIntoBackoff 	10000
scalar StVehScenario_100_25.rsu[24].nic.mac1609_4 	SlotsBackoff 	15099
scalar StVehScenario_100_25.rsu[24].nic.mac1609_4 	NumInternalContention 	0
scalar StVehScenario_100_25.rsu[24].nic.mac1609_4 	totalBusyTime 	4.989936
